Circuit: * C:\Users\HoP\Desktop\01-AD8605\01-LM358 offset voltage bias current.asc

Direct Newton iteration failed to find .op point.  (Use ".option noopiter" to skip.)
Starting Gmin stepping
Gmin = 10
Gmin = 1.07374
Gmin = 0.115292
Gmin = 0.0123794
Gmin = 0.00132923
Gmin = 0.000142725
Gmin = 1.5325e-005
Gmin = 1.6455e-006
Gmin = 1.76685e-007
Gmin = 1.89714e-008
Gmin = 2.03704e-009
Gmin = 2.18725e-010
Gmin = 2.34854e-011
Gmin = 2.52173e-012
Gmin = 2.70769e-013
Gmin = 0
Gmin stepping succeeded in finding the operating point.


voffset: AVG(v(inp)-v(out))=0.000422359 FROM 0 TO 0.001
ibias: AVG(ix(u1:in+))=-9.60678e-009 FROM 0 TO 0.001


Date: Fri Jul 22 17:38:16 2022
Total elapsed time: 0.148 seconds.

tnom = 27
temp = 27
method = modified trap
totiter = 2676
traniter = 2082
tranpoints = 1042
accept = 1042
rejected = 0
matrix size = 64
fillins = 26
solver = Normal
Thread vector: 14.6/9.8[2] 7.3/5.1[2] 2.5/2.3[1] 0.3/2.7[1]  2592/500
Matrix Compiler1: 5.99 KB object code size  2.5/1.5/[0.7]
Matrix Compiler2: 5.95 KB object code size  1.5/1.3/[0.4]

