Circuit: * C:\Users\HoP\Documents\GitHub\LTspice\02-offset voltage - bias & offset current\02-LM358\04-LM358 ti bias current effect - non-inv amp.asc

Direct Newton iteration failed to find .op point.  (Use ".option noopiter" to skip.)
Starting Gmin stepping
Gmin = 10
Gmin = 1.07374
Gmin = 0.115292
Gmin = 0.0123794
Gmin = 0.00132923
Gmin = 0.000142725
vernier = 0.5
vernier = 0.25
Gmin = 4.89078e-005
vernier = 0.125
vernier = 0.0625
vernier = 0.03125
vernier = 0.015625
Gmin = 4.7968e-005
vernier = 0.0208333
Gmin = 4.57765e-005
vernier = 0.0277778
vernier = 0.037037
Gmin = 4.23251e-005
vernier = 0.0493827
vernier = 0.0658435
Gmin = 3.73627e-005
vernier = 0.0877914
Gmin = 3.07258e-005
vernier = 0.117055
vernier = 0.156073
Gmin = 2.21743e-005
vernier = 0.208098
vernier = 0.277464
Gmin = 1.32494e-005
vernier = 0.369952
Gmin = 5.95924e-006
vernier = 0.493269
vernier = 0.657691
Gmin = 1.61337e-006
vernier = 0.876922
vernier = 0.438461
vernier = 0.21923
vernier = 0.109615
vernier = 0.0548076
vernier = 0.0274038
Gmin = 8.00462e-007
vernier = 0.0137019
vernier = 0.00685095
vernier = 0.00342548
vernier = 0.00171274
vernier = 0.000856369
vernier = 0.000428184
Gmin = 0
Gmin stepping failed

Starting source stepping with srcstepmethod=0
Source Step = 3.0303%
Source Step = 33.3333%
Source Step = 63.6364%
Source Step = 68.3712%
vernier = 0.00390625
Source Step = 68.3683%
Source Step = 68.3978%
Source Step = 68.4274%
Source Step = 68.457%
Source Step = 68.4866%
Source Step = 68.5162%
vernier = 0.00146484
Source Step = 68.5547%
Source Step = 68.5991%
Source Step = 68.6435%
Source Step = 68.6879%
Source Step = 68.7322%
Source Step = 68.7766%
vernier = 0.00219727
Source Step = 68.8366%
Source Step = 68.9031%
Source Step = 68.9697%
Source Step = 69.0363%
Source Step = 69.1029%
vernier = 0.0032959
Source Step = 69.1895%
Source Step = 69.2893%
Source Step = 69.3892%
Source Step = 69.4891%
Source Step = 69.589%
vernier = 0.00494385
Source Step = 69.7138%
Source Step = 69.8636%
Source Step = 70.0134%
Source Step = 70.1632%
Source Step = 70.3131%
vernier = 0.00741577
Source Step = 70.4928%
Source Step = 70.7176%
Source Step = 70.9423%
Source Step = 71.0771%
Source Step = 71.1333%
Source Step = 71.1895%
Source Step = 71.2456%
Source Step = 71.3018%
vernier = 0.00278091
Source Step = 71.3636%
Source Step = 71.4479%
Source Step = 71.5322%
Source Step = 71.6164%
Source Step = 71.7007%
vernier = 0.00417137
Source Step = 71.7892%
Source Step = 71.9156%
Source Step = 72.042%
Source Step = 72.1684%
Source Step = 72.2948%
Source Step = 72.4212%
vernier = 0.00625706
Source Step = 72.6108%
Source Step = 72.8004%
Source Step = 72.99%
Source Step = 73.1796%
Source Step = 73.3693%
vernier = 0.00938559
Source Step = 73.6442%
Source Step = 73.9286%
Source Step = 74.213%
Source Step = 74.4974%
Source Step = 74.7818%
vernier = 0.0140784
Source Step = 75.18%
Source Step = 75.6066%
Source Step = 76.0332%
Source Step = 76.4599%
Source Step = 76.8865%
vernier = 0.0211176
Source Step = 77.4624%
Source Step = 78.1023%
Source Step = 78.7423%
Source Step = 79.3822%
Source Step = 80.0221%
vernier = 0.0316764
Source Step = 80.854%
Source Step = 81.8139%
Source Step = 82.7738%
Source Step = 83.7337%
Source Step = 84.6936%
vernier = 0.0475145
Source Step = 85.8934%
Source Step = 87.3333%
Source Step = 88.7731%
Source Step = 89.961%
Source Step = 90.069%
Source Step = 90.1589%
Source Step = 90.2489%
Source Step = 90.3389%
Starting source stepping with srcstepmethod=1
Source Step = 3.0303%
Source Step = 33.3333%
Source Step = 63.6364%
Source Step = 88.6364%
vernier = 0.0625
Source stepping failed

Pseudo Transient succeeded in finding the operating point at 1.43509 s.
.step x=0.01
.step x=10000


Measurement: voff(div)
  step	AVG(v(out))	FROM	TO
     1	1.18397	0	0.00100062
     2	1.20408	0	0.00100062


Date: Thu Aug 25 16:43:35 2022
Total elapsed time: 7.692 seconds.

tnom = 27
temp = 27
method = modified trap
totiter = 17538
traniter = 2078
tranpoints = 1039
accept = 1039
rejected = 80
matrix size = 138
fillins = 190
solver = Normal
Thread vector: 22.3/8.2[3] 1.6/4.2[1] 14.8/9.3[3] 1.5/6.3[1]  2592/500
Matrix Compiler1: 16.69 KB object code size  3.7/1.8/[0.8]
Matrix Compiler2: 14.61 KB object code size  6.8/6.0/[2.6]

