Circuit: * C:\Users\LP\Documents\GitHub\LTspice\04-ferrite bead - supply filter\BLM18AG601SN1\01_500KHz_filter.asc


Date: Tue Oct 11 10:11:37 2022
Total elapsed time: 0.026 seconds.

tnom = 27
temp = 27
method = trap
totiter = 0
traniter = 0
tranpoints = 0
accept = 0
rejected = 0
matrix size = 7
fillins = 3
solver = Normal

