Circuit: * C:\Users\HoP\Documents\GitHub\LTspice\04-ferrite bead - supply filter\BLM18AG601SN1\01_500KHz_filter.asc


Date: Tue Oct 24 22:03:56 2023
Total elapsed time: 0.054 seconds.

tnom = 27
temp = 27
method = trap
totiter = 0
traniter = 0
tranpoints = 0
accept = 0
rejected = 0
matrix size = 8
fillins = 3
solver = Normal

