LTspice 24.0.9 for Windows
Circuit: * C:\Users\hop\Documents\GitHub\LTspice\17-analog_isolation\04-ADuM3190_transient.asc
Start Time: Fri Jul  5 23:26:16 2024
solver = Normal
Maximum thread count: 4
tnom = 27
temp = 27
method = modified trap
WARNING: Less than two connections to node refout1.  This node is used by b:u1:3.
WARNING: Less than two connections to node refout.  This node is used by b:u1:4.
WARNING: Less than two connections to node eaout.  This node is used by s:u1:2.
Direct Newton iteration for .op point succeeded.
Ignoring empty pin current: Ix(u1:-in)
Ignoring empty pin current: Ix(u1:+in)
Ignoring empty pin current: Ix(u1:-in)
Ignoring empty pin current: Ix(u1:+in)
Total elapsed time: 9.249 seconds.

