LTspice 24.0.9 for Windows
Circuit: * C:\Users\s\Documents\GitHub\LTspice\06-non-isolated ac-dc PSU\01-220Vac-5Vdc.asc
Start Time: Sat Oct 19 14:25:29 2024
solver = Normal
Maximum thread count: 4
tnom = 27
temp = 27
method = modified trap
c1: Increased Cpar to 1e-12
c2: Increased Cpar to 1e-10
c3: Increased Cpar to 4.7e-11
c4: Increased Cpar to 4.7e-11
Direct Newton iteration failed to find .op point.  (Use ".option noopiter" to skip.)
Starting Gmin stepping
Gmin = 10
Gmin = 1.07374
Gmin = 0.115292
Gmin = 0.0123794
Gmin = 0.00132923
Gmin = 0.000142725
vernier = 0.5
vernier = 0.25
Gmin = 7.16743e-05
vernier = 0.333333
vernier = 0.444444
Gmin = 3.04221e-05
vernier = 0.592592
vernier = 0.790123
Gmin = 8.08432e-06
vernier = 1
Gmin = 1.07562e-06
Gmin = 1.15494e-07
Gmin = 1.24011e-08
Gmin = 1.33156e-09
Gmin = 1.42975e-10
Gmin = 1.53518e-11
Gmin = 1.64839e-12
Gmin = 1.76994e-13
Gmin = 0
Gmin stepping succeeded in finding the operating point.


c1_rms_power: RMS(v(n002,n001)*i(c1))=10.6405 FROM 0 TO 0.7
r2_rms_power: RMS(v(n003,n004)*i(r2))=0.599133 FROM 0 TO 0.7
c1_rms_current: RMS(i(c1))=0.0689992 FROM 0 TO 0.7

Total elapsed time: 0.391 seconds.

