Circuit: * C:\Users\HoP\Documents\GitHub\LTspice\03-offset voltage - bias & offset current\01-AD8605\02-AD8605 Vos dc simulation .asc

Instance "m:u1:6": Length shorter than recommended for a level 2 MOSFET.
Instance "m:u1:5": Length shorter than recommended for a level 2 MOSFET.
Instance "m:u1:4": Length shorter than recommended for a level 2 MOSFET.
Instance "m:u1:3": Length shorter than recommended for a level 2 MOSFET.
Instance "m:u1:2": Length shorter than recommended for a level 2 MOSFET.
Instance "m:u1:1": Length shorter than recommended for a level 2 MOSFET.
.step vs=3.5 temp=-40°C
Direct Newton iteration failed to find .op point.  (Use ".option noopiter" to skip.)
Starting Gmin stepping
Gmin = 10
Gmin = 1.07374
Gmin = 0.115292
Gmin = 0.0123794
Gmin = 0.00132923
Gmin = 0.000142725
Gmin = 1.5325e-005
Gmin = 1.6455e-006
Gmin = 1.76685e-007
Gmin = 1.89714e-008
Gmin = 2.03704e-009
Gmin = 2.18725e-010
Gmin = 2.34854e-011
Gmin = 2.52173e-012
Gmin = 2.70769e-013
Gmin = 0
Gmin stepping succeeded in finding the operating point.

.step vs=5 temp=-40°C
.step vs=3.5 temp=27°C
.step vs=5 temp=27°C
.step vs=3.5 temp=125°C
.step vs=5 temp=125°C



Date: Tue Mar 12 15:56:46 2024
Total elapsed time: 0.272 seconds.

tnom = 27
temp = 125
method = trap
totiter = 601
traniter = 0
tranpoints = 0
accept = 0
rejected = 0
matrix size = 44
fillins = 7
solver = Normal
Matrix Compiler1:     165 opcodes  0.7/0.4/[0.2]
Matrix Compiler2: 4.22 KB object code size  0.8/0.8/[0.2]

