LTspice 24.0.9 for Windows
Circuit: * C:\Users\hop\Documents\GitHub\LTspice\33-opamp\03-ad8065_input_voltage_noise.asc
Start Time: Thu Feb 20 14:42:39 2025
solver = Normal
Maximum thread count: 4
tnom = 27
temp = 27
method = modified trap
Direct Newton iteration for .op point succeeded.
Total elapsed time: 0.127 seconds.

