LTspice 24.0.9 for Windows
Circuit: * C:\Users\hop\Documents\GitHub\LTspice\33-opamp\04-ad8676_input_voltage_noise.asc
Start Time: Thu Feb 20 14:42:35 2025
solver = Normal
Maximum thread count: 4
tnom = 27
temp = 27
method = modified trap
Direct Newton iteration failed to find .op point.  (Use ".option noopiter" to skip.)
Starting Gmin stepping
Gmin = 10
Gmin = 1.07374
vernier = 0.5
vernier = 0.25
vernier = 0.125
vernier = 0.0625
Gmin = 0.995033
vernier = 0.03125
vernier = 0.015625
vernier = 0.0078125
vernier = 0.00390625
Gmin = 0.999816
vernier = 0.00195312
vernier = 0.000976562
vernier = 0.000488281
Gmin = 0
Gmin stepping failed

Starting source stepping with srcstepmethod=0
Source Step = 3.0303%
Source Step = 33.3333%
Source Step = 39.4028%
Source Step = 39.4324%
Source Step = 39.462%
Source Step = 39.4916%
Source Step = 39.5212%
vernier = 0.00146484
Source Step = 39.5537%
Source Step = 39.5981%
Source Step = 39.6425%
Source Step = 39.6869%
Source Step = 39.7313%
vernier = 0.00219727
Source Step = 39.7779%
Source Step = 39.8445%
Source Step = 39.9111%
Source Step = 39.9777%
Source Step = 40.0442%
Source Step = 40.1108%
vernier = 0.0032959
Source Step = 40.2107%
Source Step = 40.3106%
Source Step = 40.4105%
Source Step = 40.5103%
Source Step = 40.6102%
vernier = 0.00494385
Source Step = 40.755%
Source Step = 40.9048%
Source Step = 41.0547%
Source Step = 41.2045%
Source Step = 41.3543%
vernier = 0.00741577
Source Step = 41.564%
Source Step = 41.7887%
Source Step = 42.0135%
Source Step = 42.2382%
Source Step = 42.4629%
vernier = 0.0111237
Source Step = 42.7663%
Source Step = 43.1034%
Source Step = 43.4404%
Source Step = 43.7775%
Source Step = 44.1146%
vernier = 0.0166855
Source Step = 44.5528%
Source Step = 45.0584%
Source Step = 45.564%
Source Step = 46.0697%
Source Step = 46.5753%
vernier = 0.0250282
Source Step = 47.2073%
Source Step = 47.9657%
Source Step = 48.7242%
Source Step = 49.4826%
Source Step = 50.241%
vernier = 0.0375423
Source Step = 51.1511%
Source Step = 52.2888%
Source Step = 53.4264%
Source Step = 54.5641%
Source Step = 55.7017%
vernier = 0.0563135
Source Step = 57.01%
Source Step = 58.7165%
Source Step = 60.423%
Source Step = 62.1294%
Source Step = 63.8359%
vernier = 0.0844703
Source Step = 65.713%
Source Step = 68.2727%
Source Step = 70.8324%
Source Step = 73.3921%
Source Step = 75.9518%
vernier = 0.126705
Source Step = 78.6395%
Source Step = 82.4791%
Source Step = 86.3187%
Source Step = 90.1582%
Source Step = 93.9978%
Source Step = 97.8373%
vernier = 0.190058
Source stepping succeeded in finding the operating point.

Total elapsed time: 0.241 seconds.

