LTspice 24.0.9 for Windows
Circuit: *$
Start Time: Tue Feb 11 13:52:11 2025
Fatal Error: No analysis request found.
