LTspice 24.0.9 for Windows
Circuit: * C:\Users\s\Documents\GitHub\LTspice\26-buck\06-ferrite_core_loss_max_temperature_buck.asc
Start Time: Sun Apr 13 23:08:50 2025
solver = Normal
Maximum thread count: 4
tnom = 27
temp = 27
method = modified trap
WARNING: Less than two connections to node avg_trise.  This node is used by b4.
Direct Newton iteration for .op point succeeded.

sweep_val: MAX(v(p)/2.99)=0.0282152 FROM 0 TO 1.99952e-05

Total elapsed time: 1.003 seconds.

