LTspice 24.0.9 for Windows
Circuit: * C:\Users\s\Documents\GitHub\LTspice\26-buck\08-ferrite_core_loss_max_temp_non-sinsoidal_buck.asc
Start Time: Tue Apr 29 11:21:22 2025
solver = Normal
Maximum thread count: 4
tnom = 27
temp = 27
method = modified trap
WARNING: Less than two connections to node tavg_rise.  This node is used by b6.
Instance "m:u1:1": Length shorter than recommended for a level 2 MOSFET.
Instance "m:u1:2": Length shorter than recommended for a level 2 MOSFET.
Instance "m:u1:3": Length shorter than recommended for a level 2 MOSFET.
Instance "m:u1:4": Length shorter than recommended for a level 2 MOSFET.
Instance "m:u1:5": Length shorter than recommended for a level 2 MOSFET.
Instance "m:u1:6": Length shorter than recommended for a level 2 MOSFET.
Direct Newton iteration for .op point succeeded.

ind_avg_power: AVG(i(vsns)*v(lp,ln))=0.47415 FROM 0 TO 5e-05
max_ind_voltage: MAX(v(lp,ln))=21.5751 FROM 0 TO 5e-05
max_bac: MAX(v(bac))=0.0703658 FROM 0 TO 5e-05
max_pavg_core: MAX(v(pavg_core))=0.473351 FROM 0 TO 5e-05

Total elapsed time: 1.191 seconds.

