LTspice 24.0.9 for Windows
Circuit: * C:\Users\s\Documents\GitHub\LTspice\34-lna\01_low_freq_lna.asc
Start Time: Tue Feb 11 15:39:19 2025
solver = Normal
Maximum thread count: 4
tnom = 27
temp = 27
method = modified trap
Instance "m:q1:1": Width narrower than recommended for a level 3 MOSFET.
Direct Newton iteration failed to find .op point.  (Use ".option noopiter" to skip.)
Starting Gmin stepping
Gmin = 10
Gmin = 1.07374
vernier = 0.5
vernier = 0.25
vernier = 0.125
vernier = 0.0625
Gmin = 1.10559
vernier = 0.03125
vernier = 0.015625
Gmin = 1.04709
vernier = 0.0208333
vernier = 0.0104167
vernier = 0.00520833
Gmin = 1.0282
vernier = 0.00694444
vernier = 0.00347222
Gmin = 1.01932
vernier = 0.00462963
vernier = 0.00231481
vernier = 0.00308642
vernier = 0.00154321
Gmin = 1.0155
vernier = 0.00205761
vernier = 0.00102881
Gmin = 1.0125
vernier = 0.00137174
vernier = 0.00068587
Gmin = 1.01033
vernier = 0.000914493
vernier = 0.000457247
Gmin = 1.00866
vernier = 0.000609662
Gmin = 1.00731
vernier = 0.000812882
vernier = 0.000406441
vernier = 0.000541921
vernier = 0.000406441
Gmin = 1.00665
vernier = 0.000541921
vernier = 0.000406441
Gmin = 1.00583
Gmin = 0
Gmin stepping failed

Starting source stepping with srcstepmethod=0
Source Step = 3.0303%
Source Step = 12.1212%
Source Step = 19.697%
Source Step = 27.2727%
Source Step = 34.8485%
Source Step = 42.4242%
vernier = 0.375
Source Step = 52.6515%
Source Step = 64.0152%
Source Step = 75.3788%
Source Step = 86.7424%
Source Step = 98.1061%
Source stepping succeeded in finding the operating point.

Ignoring empty pin current: Ix(q1:2)
Ignoring empty pin current: Ix(q1:1)
Ignoring empty pin current: Ix(q1:3)
Ignoring empty pin current: Ix(_s1:1)
Ignoring empty pin current: Ix(_s1:2)
Ignoring empty pin current: Ix(_s1:3)
Ignoring empty pin current: Ix(_s1:4)
Ignoring empty pin current: Ix(u1:vc+)
Ignoring empty pin current: Ix(u1:vc-)
Ignoring empty pin current: Ix(u1:vout+)
Ignoring empty pin current: Ix(u1:vout-)
Ignoring empty pin current: Ix(u4:vc+)
Ignoring empty pin current: Ix(u4:vc-)
Ignoring empty pin current: Ix(u4:iout+)
Ignoring empty pin current: Ix(u4:iout-)
Ignoring empty pin current: Ix(_h1:1)
Ignoring empty pin current: Ix(_h1:2)
Ignoring empty pin current: Ix(_h1:3)
Ignoring empty pin current: Ix(_h1:4)
Ignoring empty pin current: Ix(_h2:1)
Ignoring empty pin current: Ix(_h2:2)
Ignoring empty pin current: Ix(_h2:3)
Ignoring empty pin current: Ix(_h2:4)
Ignoring empty pin current: Ix(_u1:1)
Ignoring empty pin current: Ix(_u1:2)
Ignoring empty pin current: Ix(_s2:1)
Ignoring empty pin current: Ix(_s2:2)
Ignoring empty pin current: Ix(_s2:3)
Ignoring empty pin current: Ix(_s2:4)
Ignoring empty pin current: Ix(_u4:a)
Ignoring empty pin current: Ix(_u4:c)
Ignoring empty pin current: Ix(q1:2)
Ignoring empty pin current: Ix(q1:1)
Ignoring empty pin current: Ix(q1:3)
Ignoring empty pin current: Ix(_s1:1)
Ignoring empty pin current: Ix(_s1:2)
Ignoring empty pin current: Ix(_s1:3)
Ignoring empty pin current: Ix(_s1:4)
Ignoring empty pin current: Ix(u1:vc+)
Ignoring empty pin current: Ix(u1:vc-)
Ignoring empty pin current: Ix(u1:vout+)
Ignoring empty pin current: Ix(u1:vout-)
Ignoring empty pin current: Ix(u4:vc+)
Ignoring empty pin current: Ix(u4:vc-)
Ignoring empty pin current: Ix(u4:iout+)
Ignoring empty pin current: Ix(u4:iout-)
Ignoring empty pin current: Ix(_h1:1)
Ignoring empty pin current: Ix(_h1:2)
Ignoring empty pin current: Ix(_h1:3)
Ignoring empty pin current: Ix(_h1:4)
Ignoring empty pin current: Ix(_h2:1)
Ignoring empty pin current: Ix(_h2:2)
Ignoring empty pin current: Ix(_h2:3)
Ignoring empty pin current: Ix(_h2:4)
Ignoring empty pin current: Ix(_u1:1)
Ignoring empty pin current: Ix(_u1:2)
Ignoring empty pin current: Ix(_s2:1)
Ignoring empty pin current: Ix(_s2:2)
Ignoring empty pin current: Ix(_s2:3)
Ignoring empty pin current: Ix(_s2:4)
Ignoring empty pin current: Ix(_u4:a)
Ignoring empty pin current: Ix(_u4:c)
Total elapsed time: 4.616 seconds.

