LTspice 24.0.9 for Windows
Circuit: * C:\Users\s\Documents\GitHub\LTspice\34-lna\03_low_freq_lna_ada4898.asc
Start Time: Tue Feb 25 15:00:31 2025
solver = Normal
Maximum thread count: 4
tnom = 27
temp = 27
method = modified trap
Instance "m:q1:1": Width narrower than recommended for a level 3 MOSFET.
Direct Newton iteration failed to find .op point.  (Use ".option noopiter" to skip.)
Starting Gmin stepping
Gmin = 10
Gmin = 1.07374
vernier = 0.5
vernier = 0.25
vernier = 0.125
vernier = 0.0625
Gmin = 1.1391
vernier = 0.03125
vernier = 0.015625
Gmin = 1.08297
vernier = 0.0078125
Gmin = 1.05998
vernier = 0.0104167
vernier = 0.00520833
vernier = 0.00694444
vernier = 0.00347222
Gmin = 1.05219
vernier = 0.00462963
vernier = 0.00231481
Gmin = 1.04492
vernier = 0.00308642
vernier = 0.00154321
Gmin = 1.03989
vernier = 0.00205761
vernier = 0.00274348
Gmin = 1.03478
vernier = 0.00137174
vernier = 0.00182899
vernier = 0.000914493
Gmin = 1.03324
vernier = 0.00121932
vernier = 0.00162576
Gmin = 1.03023
vernier = 0.000812882
vernier = 0.00108384
Gmin = 1.02848
vernier = 0.000541921
vernier = 0.000722562
Gmin = 1.02723
vernier = 0.000963415
vernier = 0.000481708
Gmin = 1.02606
vernier = 0.000642277
vernier = 0.000856369
vernier = 0.000428184
Gmin = 1.02485
vernier = 0.000570912
vernier = 0.000761216
Gmin = 1.02345
vernier = 0.000570912
vernier = 0.000761216
vernier = 0.000570912
vernier = 0.000428184
Gmin = 1.02291
vernier = 0.000570912
vernier = 0.000428184
Gmin = 1.02204
vernier = 0.000570912
vernier = 0.000428184
vernier = 0.000570912
Gmin = 1.02113
vernier = 0.000428184
vernier = 0.000570912
vernier = 0.000428184
Gmin = 0
Gmin = 0
Gmin stepping failed

Starting source stepping with srcstepmethod=0
Source Step = 3.0303%
vernier = 0.25
Source Step = 7.57576%
Source Step = 15.1515%
Source Step = 22.7273%
Source Step = 30.303%
Source Step = 37.8788%
vernier = 0.375
Source Step = 48.8636%
Source Step = 60.2273%
Source Step = 71.5909%
Source Step = 82.9545%
Source Step = 94.3182%
vernier = 0.5625
Source stepping succeeded in finding the operating point.

Ignoring empty pin current: Ix(q1:2)
Ignoring empty pin current: Ix(q1:1)
Ignoring empty pin current: Ix(q1:3)
Ignoring empty pin current: Ix(_s1:1)
Ignoring empty pin current: Ix(_s1:2)
Ignoring empty pin current: Ix(_s1:3)
Ignoring empty pin current: Ix(_s1:4)
Ignoring empty pin current: Ix(u5:vc+)
Ignoring empty pin current: Ix(u5:vc-)
Ignoring empty pin current: Ix(u5:vout+)
Ignoring empty pin current: Ix(u5:vout-)
Ignoring empty pin current: Ix(u3:vc+)
Ignoring empty pin current: Ix(u3:vc-)
Ignoring empty pin current: Ix(u3:vout+)
Ignoring empty pin current: Ix(u3:vout-)
Ignoring empty pin current: Ix(u1:vc+)
Ignoring empty pin current: Ix(u1:vc-)
Ignoring empty pin current: Ix(u1:vout+)
Ignoring empty pin current: Ix(u1:vout-)
Ignoring empty pin current: Ix(u2:a)
Ignoring empty pin current: Ix(u2:c)
Ignoring empty pin current: Ix(u4:vc+)
Ignoring empty pin current: Ix(u4:vc-)
Ignoring empty pin current: Ix(u4:iout+)
Ignoring empty pin current: Ix(u4:iout-)
Ignoring empty pin current: Ix(_h1:1)
Ignoring empty pin current: Ix(_h1:2)
Ignoring empty pin current: Ix(_h1:3)
Ignoring empty pin current: Ix(_h1:4)
Ignoring empty pin current: Ix(_h2:1)
Ignoring empty pin current: Ix(_h2:2)
Ignoring empty pin current: Ix(_h2:3)
Ignoring empty pin current: Ix(_h2:4)
Ignoring empty pin current: Ix(_u1:1)
Ignoring empty pin current: Ix(_u1:2)
Ignoring empty pin current: Ix(_s2:1)
Ignoring empty pin current: Ix(_s2:2)
Ignoring empty pin current: Ix(_s2:3)
Ignoring empty pin current: Ix(_s2:4)
Ignoring empty pin current: Ix(_u4:a)
Ignoring empty pin current: Ix(_u4:c)
Ignoring empty pin current: Ix(q1:2)
Ignoring empty pin current: Ix(q1:1)
Ignoring empty pin current: Ix(q1:3)
Ignoring empty pin current: Ix(_s1:1)
Ignoring empty pin current: Ix(_s1:2)
Ignoring empty pin current: Ix(_s1:3)
Ignoring empty pin current: Ix(_s1:4)
Ignoring empty pin current: Ix(u5:vc+)
Ignoring empty pin current: Ix(u5:vc-)
Ignoring empty pin current: Ix(u5:vout+)
Ignoring empty pin current: Ix(u5:vout-)
Ignoring empty pin current: Ix(u3:vc+)
Ignoring empty pin current: Ix(u3:vc-)
Ignoring empty pin current: Ix(u3:vout+)
Ignoring empty pin current: Ix(u3:vout-)
Ignoring empty pin current: Ix(u1:vc+)
Ignoring empty pin current: Ix(u1:vc-)
Ignoring empty pin current: Ix(u1:vout+)
Ignoring empty pin current: Ix(u1:vout-)
Ignoring empty pin current: Ix(u2:a)
Ignoring empty pin current: Ix(u2:c)
Ignoring empty pin current: Ix(u4:vc+)
Ignoring empty pin current: Ix(u4:vc-)
Ignoring empty pin current: Ix(u4:iout+)
Ignoring empty pin current: Ix(u4:iout-)
Ignoring empty pin current: Ix(_h1:1)
Ignoring empty pin current: Ix(_h1:2)
Ignoring empty pin current: Ix(_h1:3)
Ignoring empty pin current: Ix(_h1:4)
Ignoring empty pin current: Ix(_h2:1)
Ignoring empty pin current: Ix(_h2:2)
Ignoring empty pin current: Ix(_h2:3)
Ignoring empty pin current: Ix(_h2:4)
Ignoring empty pin current: Ix(_u1:1)
Ignoring empty pin current: Ix(_u1:2)
Ignoring empty pin current: Ix(_s2:1)
Ignoring empty pin current: Ix(_s2:2)
Ignoring empty pin current: Ix(_s2:3)
Ignoring empty pin current: Ix(_s2:4)
Ignoring empty pin current: Ix(_u4:a)
Ignoring empty pin current: Ix(_u4:c)
Total elapsed time: 20.252 seconds.

