LTspice 24.0.9 for Windows
Circuit: * C:\Users\s\Documents\GitHub\LTspice\34-lna\03_low_freq_lna_ada4898.asc
Start Time: Tue Feb 11 17:56:32 2025
solver = Normal
Maximum thread count: 4
tnom = 27
temp = 27
method = modified trap
Instance "m:q1:1": Width narrower than recommended for a level 3 MOSFET.
Direct Newton iteration failed to find .op point.  (Use ".option noopiter" to skip.)
Starting Gmin stepping
Gmin = 10
Gmin = 1.07374
vernier = 0.5
vernier = 0.25
vernier = 0.125
vernier = 0.0625
vernier = 0.03125
Gmin = 1.02835
vernier = 0.015625
vernier = 0.0078125
vernier = 0.00390625
vernier = 0.00195312
vernier = 0.000976562
vernier = 0.000488281
Gmin = 0
Gmin stepping failed

Starting source stepping with srcstepmethod=0
Source Step = 3.0303%
vernier = 0.25
Source Step = 7.57576%
Source Step = 15.1515%
Source Step = 22.7273%
Source Step = 30.303%
Source Step = 37.8788%
vernier = 0.375
Source Step = 48.8636%
Source Step = 60.2273%
Source Step = 71.5909%
Source Step = 82.9545%
Source Step = 94.3182%
vernier = 0.5625
Source stepping succeeded in finding the operating point.

Ignoring empty pin current: Ix(q1:2)
Ignoring empty pin current: Ix(q1:1)
Ignoring empty pin current: Ix(q1:3)
Ignoring empty pin current: Ix(_s1:1)
Ignoring empty pin current: Ix(_s1:2)
Ignoring empty pin current: Ix(_s1:3)
Ignoring empty pin current: Ix(_s1:4)
Ignoring empty pin current: Ix(u2:a)
Ignoring empty pin current: Ix(u2:c)
Ignoring empty pin current: Ix(u4:vc+)
Ignoring empty pin current: Ix(u4:vc-)
Ignoring empty pin current: Ix(u4:iout+)
Ignoring empty pin current: Ix(u4:iout-)
Ignoring empty pin current: Ix(_h1:1)
Ignoring empty pin current: Ix(_h1:2)
Ignoring empty pin current: Ix(_h1:3)
Ignoring empty pin current: Ix(_h1:4)
Ignoring empty pin current: Ix(_h2:1)
Ignoring empty pin current: Ix(_h2:2)
Ignoring empty pin current: Ix(_h2:3)
Ignoring empty pin current: Ix(_h2:4)
Ignoring empty pin current: Ix(_u1:1)
Ignoring empty pin current: Ix(_u1:2)
Ignoring empty pin current: Ix(_s2:1)
Ignoring empty pin current: Ix(_s2:2)
Ignoring empty pin current: Ix(_s2:3)
Ignoring empty pin current: Ix(_s2:4)
Ignoring empty pin current: Ix(_u4:a)
Ignoring empty pin current: Ix(_u4:c)
Ignoring empty pin current: Ix(q1:2)
Ignoring empty pin current: Ix(q1:1)
Ignoring empty pin current: Ix(q1:3)
Ignoring empty pin current: Ix(_s1:1)
Ignoring empty pin current: Ix(_s1:2)
Ignoring empty pin current: Ix(_s1:3)
Ignoring empty pin current: Ix(_s1:4)
Ignoring empty pin current: Ix(u2:a)
Ignoring empty pin current: Ix(u2:c)
Ignoring empty pin current: Ix(u4:vc+)
Ignoring empty pin current: Ix(u4:vc-)
Ignoring empty pin current: Ix(u4:iout+)
Ignoring empty pin current: Ix(u4:iout-)
Ignoring empty pin current: Ix(_h1:1)
Ignoring empty pin current: Ix(_h1:2)
Ignoring empty pin current: Ix(_h1:3)
Ignoring empty pin current: Ix(_h1:4)
Ignoring empty pin current: Ix(_h2:1)
Ignoring empty pin current: Ix(_h2:2)
Ignoring empty pin current: Ix(_h2:3)
Ignoring empty pin current: Ix(_h2:4)
Ignoring empty pin current: Ix(_u1:1)
Ignoring empty pin current: Ix(_u1:2)
Ignoring empty pin current: Ix(_s2:1)
Ignoring empty pin current: Ix(_s2:2)
Ignoring empty pin current: Ix(_s2:3)
Ignoring empty pin current: Ix(_s2:4)
Ignoring empty pin current: Ix(_u4:a)
Ignoring empty pin current: Ix(_u4:c)
Total elapsed time: 3.584 seconds.

