LTspice 24.0.9 for Windows
Circuit: * C:\Users\s\Documents\GitHub\LTspice\28-amplifier_basics\01-current_mirror.asc
Start Time: Wed Jan 22 14:58:55 2025
Warning: Multiple definitions of model "2scr375p" Type: BJT
Warning: Multiple definitions of model "bc857b" Type: BJT
Warning: Multiple definitions of model "bc847c" Type: BJT
Warning: Multiple definitions of model "bc847b" Type: BJT
solver = Normal
Maximum thread count: 4



Direct Newton iteration for .op point succeeded.
.step load=10



.step load=20
tnom = 27
temp = 27
method = modified trap
.step load=100
Total elapsed time: 0.273 seconds.

