LTspice 24.0.9 for Windows
Circuit: * C:\Users\hop\Documents\GitHub\LTspice\16-transformer\NonLinearTransformer.asc
Start Time: Sun Jun  9 22:39:58 2024
solver = Normal
Maximum thread count: 4



Direct Newton iteration for .op point succeeded.
.step r=1
tnom = 27
temp = 27
method = modified trap
.step r=1000000
Total elapsed time: 20.839 seconds.

