LTspice 24.0.9 for Windows
Circuit: * C:\Users\s\Documents\GitHub\LTspice\35-analog_switch\02-analog_switch_jfet.asc
Start Time: Wed Feb 26 10:22:06 2025
solver = Normal
Maximum thread count: 4
tnom = 27
temp = 27
method = modified trap
c1: Increased Cpar to 4.7e-10
Direct Newton iteration for .op point succeeded.
Total elapsed time: 7.840 seconds.

