LTspice 24.0.9 for Windows
Circuit: * C:\Users\SGI-U3\Documents\GitHub\LTspice\03-offset voltage - bias & offset current\03-AD8030\AD8030 bias current.asc
Start Time: Tue Mar  5 15:05:03 2024
solver = Normal
Maximum thread count: 8



Direct Newton iteration for .op point succeeded.
.step x=0.1
tnom = 27
temp = 27
method = modified trap
.step x=1000
Total elapsed time: 0.160 seconds.

