LTspice 24.0.9 for Windows
Circuit: * C:\Users\hop\Documents\GitHub\LTspice\24-mofet\02-si2302cds_fast_switching.asc
Start Time: Fri Aug 30 18:31:56 2024
Warning: Multiple definitions of model "2scr375p" Type: BJT
Warning: Multiple definitions of model "bc857b" Type: BJT
Warning: Multiple definitions of model "bc847c" Type: BJT
Warning: Multiple definitions of model "bc847b" Type: BJT
solver = Normal
Maximum thread count: 4



Model "u1:nmos": Oxide thickness thinner than recommended for a level 3 MOSFET.
Model "u1:pmos": Oxide thickness thinner than recommended for a level 3 MOSFET.
Instance "m:u1:1": Length shorter than recommended for a level 3 MOSFET.
Instance "m:u1:2": Length shorter than recommended for a level 3 MOSFET.
Direct Newton iteration for .op point succeeded.
.step signal_level=3.3
tnom = 27
temp = 27
method = modified trap
.step signal_level=5


Measurement: peak_iload
  step	i(rload)	at
     1	1.80563	2e-08
     2	1.83435	2e-08

Measurement: rt_load
  step	rt_load	FROM	TO
     1	9.60802e-10	1.80064e-09	2.76144e-09
     2	5.95215e-10	1.302e-09	1.89722e-09

Total elapsed time: 0.171 seconds.

