LTspice 24.0.9 for Windows
Circuit: * C:\Users\hop\Documents\GitHub\LTspice\24-mofet\02-si2302cds_fast_switching.asc
Start Time: Fri Aug 30 17:45:02 2024
solver = Normal
Maximum thread count: 4
tnom = 27
temp = 27
method = modified trap
Model "u1:nmos": Oxide thickness thinner than recommended for a level 3 MOSFET.
Model "u1:pmos": Oxide thickness thinner than recommended for a level 3 MOSFET.
Instance "m:u1:1": Length shorter than recommended for a level 3 MOSFET.
Instance "m:u1:2": Length shorter than recommended for a level 3 MOSFET.
Direct Newton iteration for .op point succeeded.
Total elapsed time: 0.102 seconds.

