Circuit: * C:\Users\SGI-U3\Documents\GitHub\LTspice\07-zero-cross detection\02-opto-with-comparator.asc

Warning: Multiple definitions of model "2scr375p" Type: BJT
Warning: Multiple definitions of model "bc857b" Type: BJT
Warning: Multiple definitions of model "bc847c" Type: BJT
Warning: Multiple definitions of model "bc847b" Type: BJT
WARNING: Node N005 is floating.

Direct Newton iteration failed to find .op point.  (Use ".option noopiter" to skip.)
Starting Gmin stepping
Gmin = 10
Gmin = 1.07374
Gmin = 0.115292
Gmin = 0.0123794
Gmin = 0.00132923
vernier = 0.5
vernier = 0.25
vernier = 0.125
vernier = 0.0625
Gmin = 0.00100083
vernier = 0.03125
vernier = 0.015625
vernier = 0.0078125
vernier = 0.00390625
vernier = 0.00195312
Gmin = 0.00100083
vernier = 0.000976562
vernier = 0.000488281
Gmin = 0
Gmin stepping failed

Starting source stepping with srcstepmethod=0
Source Step = 3.0303%
Source Step = 33.3333%
Source Step = 63.6364%
Source Step = 93.9394%
Source stepping succeeded in finding the operating point.


Date: Sat Jan 13 11:20:08 2024
Total elapsed time: 0.556 seconds.

tnom = 27
temp = 27
method = modified trap
totiter = 7487
traniter = 5699
tranpoints = 2105
accept = 1750
rejected = 355
matrix size = 74
fillins = 70
solver = Normal
Avg thread counts: 1.5/2.3/2.3/1.5
Matrix Compiler1: 7.91 KB object code size  3.7/2.8/[1.6]
Matrix Compiler2: 7.57 KB object code size  1.7/2.0/[1.1]

