Circuit: * C:\Users\HoP\Documents\GitHub\LTspice\09-stability\01-open_loop_stability_lt6016.asc

Direct Newton iteration failed to find .op point.  (Use ".option noopiter" to skip.)
Starting Gmin stepping
Gmin = 10
Gmin = 1.07374
vernier = 0.5
vernier = 0.25
vernier = 0.125
Gmin = 1.05488
vernier = 0.166667
vernier = 0.0833333
vernier = 0.0416667
vernier = 0.0208333
vernier = 0.0104167
Gmin = 1.00203
vernier = 0.00520833
vernier = 0.00260417
vernier = 0.00130208
vernier = 0.000651042
Gmin = 1.00008
vernier = 0.000488281
Gmin = 0
Gmin stepping failed

Starting source stepping with srcstepmethod=0
Source Step = 3.0303%
Source Step = 28.0303%
vernier = 0.0625
Source Step = 29.1667%
Source Step = 31.0606%
Source Step = 32.9545%
Source Step = 34.8485%
Source Step = 36.7424%
vernier = 0.09375
Source Step = 37.9261%
Source Step = 38.6364%
Source Step = 39.3466%
Source Step = 40.0568%
Source Step = 40.767%
vernier = 0.0351563
Source Step = 41.6548%
Source Step = 42.7202%
Source Step = 43.7855%
Source Step = 44.8509%
Source Step = 45.9162%
vernier = 0.0527344
Source Step = 46.7951%
Source Step = 47.1946%
Source Step = 47.5941%
Source Step = 47.9936%
Source Step = 48.3931%
vernier = 0.0197754
Source Step = 48.8126%
Source Step = 49.4118%
Source Step = 50.0111%
Source Step = 50.6104%
Source Step = 51.2096%
Source Step = 51.8089%
vernier = 0.0296631
Source Step = 52.7077%
Source Step = 53.6066%
Source Step = 54.5055%
Source Step = 55.4044%
Source Step = 56.3033%
vernier = 0.0444946
Source Step = 56.6628%
Source Step = 56.9999%
Source Step = 57.337%
Source Step = 57.6741%
Source Step = 58.0111%
vernier = 0.0166855
Source Step = 58.4662%
Source Step = 58.9718%
Source Step = 59.4774%
Source Step = 59.9831%
Source Step = 60.4887%
vernier = 0.0250282
Source Step = 61.146%
Source Step = 61.9044%
Source Step = 62.6629%
Source Step = 63.4213%
Source Step = 64.1797%
vernier = 0.0375423
Source Step = 64.6727%
Source Step = 64.9571%
Source Step = 65.2415%
Source Step = 65.5259%
Source Step = 65.8103%
vernier = 0.0140784
Source Step = 66.1374%
Source Step = 66.564%
Source Step = 66.9907%
Source Step = 67.4173%
Source Step = 67.8439%
vernier = 0.0211176
Source Step = 68.3132%
Source Step = 68.8411%
Source Step = 69.0011%
Source Step = 69.1611%
Source Step = 69.321%
Source Step = 69.481%
Source Step = 69.641%
vernier = 0.00791909
Source Step = 69.881%
Source Step = 70.121%
Source Step = 70.3609%
Source Step = 70.6009%
Source Step = 70.8409%
vernier = 0.0118786
Source Step = 71.1888%
Source Step = 71.5488%
Source Step = 71.9088%
Source Step = 72.2687%
Source Step = 72.6287%
vernier = 0.0178179
Source Step = 72.8761%
Source Step = 73.0111%
Source Step = 73.1461%
Source Step = 73.2811%
Source Step = 73.4161%
vernier = 0.00668173
Source Step = 73.5781%
Source Step = 73.7805%
Source Step = 73.983%
Source Step = 74.1855%
Source Step = 74.388%
vernier = 0.0100226
Source Step = 74.6208%
Source Step = 74.9245%
Source Step = 75.2282%
Source Step = 75.532%
Source Step = 75.8357%
vernier = 0.0150339
Source Step = 76.09%
vernier = 0.000939618
Source Step = 76.1071%
Source Step = 76.1356%
Source Step = 76.1641%
Source Step = 76.1925%
Source Step = 76.221%
vernier = 0.00140943
Source Step = 76.2623%
Source Step = 76.305%
Source Step = 76.3477%
Source Step = 76.3904%
Source Step = 76.4331%
vernier = 0.00211414
Source Step = 76.4929%
Source Step = 76.557%
Source Step = 76.6211%
Source Step = 76.6851%
Source Step = 76.7492%
vernier = 0.00317121
Source Step = 76.8357%
Source Step = 76.9318%
Source Step = 77.0279%
Source Step = 77.124%
Source Step = 77.2201%
vernier = 0.00475682
Source Step = 77.345%
Source Step = 77.4891%
Source Step = 77.6333%
Source Step = 77.7774%
Source Step = 77.9216%
vernier = 0.00713523
Source Step = 78.1018%
Source Step = 78.318%
Source Step = 78.5342%
Source Step = 78.7504%
Source Step = 78.9666%
vernier = 0.0107028
Source Step = 79.2261%
Source Step = 79.5504%
Source Step = 79.8748%
Source Step = 80.1991%
Source Step = 80.5234%
vernier = 0.0160543
Source Step = 80.7748%
Source Step = 80.8964%
Source Step = 81.018%
Source Step = 81.1396%
Source Step = 81.2613%
vernier = 0.00602035
Source Step = 81.389%
Source Step = 81.5714%
Source Step = 81.7538%
Source Step = 81.9363%
Source Step = 82.1187%
Source Step = 82.3011%
vernier = 0.00903052
Source Step = 82.5748%
Source Step = 82.8484%
Source Step = 83.1221%
Source Step = 83.3957%
Source Step = 83.6694%
vernier = 0.0135458
Source Step = 84.0662%
Source Step = 84.2509%
Source Step = 84.3535%
Source Step = 84.4562%
Source Step = 84.5588%
Source Step = 84.6614%
vernier = 0.00507967
Source Step = 84.7897%
Source Step = 84.9436%
Source Step = 85.0975%
Source Step = 85.2515%
Source Step = 85.4054%
vernier = 0.0076195
Source Step = 85.5901%
Source Step = 85.821%
Source Step = 86.0519%
Source Step = 86.2828%
Source Step = 86.5137%
vernier = 0.0114293
Source Step = 86.7792%
Source Step = 87.1255%
Source Step = 87.4719%
Source Step = 87.8182%
Source Step = 88.1646%
vernier = 0.0171439
Source Step = 88.4546%
Source Step = 88.5845%
Source Step = 88.7144%
Source Step = 88.8443%
Source Step = 88.9741%
Source Step = 89.104%
vernier = 0.00642896
Source Step = 89.2988%
Source Step = 89.4936%
Source Step = 89.6885%
Source Step = 89.8833%
Source Step = 90.0781%
vernier = 0.00964343
Source Step = 90.3606%
Source Step = 90.6528%
Source Step = 90.945%
Source Step = 91.2373%
Source Step = 91.5295%
vernier = 0.0144651
Source Step = 91.6646%
Source Step = 91.7742%
Source Step = 91.8838%
Source Step = 91.9934%
Source Step = 92.103%
vernier = 0.00542443
Source Step = 92.2454%
Source Step = 92.4098%
Source Step = 92.5742%
Source Step = 92.7386%
Source Step = 92.9029%
vernier = 0.00813665
Source Step = 93.1084%
Source Step = 93.355%
Source Step = 93.6015%
Source Step = 93.8481%
Source Step = 94.0947%
vernier = 0.012205
Source Step = 94.2704%
Source Step = 94.3628%
Source Step = 94.4553%
Source Step = 94.5477%
Source Step = 94.6402%
vernier = 0.00457686
Source Step = 94.7419%
Source Step = 94.8806%
Source Step = 95.0193%
Source Step = 95.158%
Source Step = 95.2967%
vernier = 0.0068653
Source Step = 95.4423%
Source Step = 95.6503%
Source Step = 95.8584%
Source Step = 96.0664%
Source Step = 96.2745%
Source Step = 96.4825%
vernier = 0.0102979
Source Step = 96.5527%
Source Step = 96.6307%
Source Step = 96.7087%
Source Step = 96.7868%
Source Step = 96.8648%
vernier = 0.00386173
Source Step = 96.974%
Source Step = 97.091%
Source Step = 97.208%
Source Step = 97.3251%
Source Step = 97.4421%
vernier = 0.00579259
Source Step = 97.6001%
Source Step = 97.7756%
Source Step = 97.9511%
Source Step = 98.1267%
Source Step = 98.3022%
vernier = 0.00868889
Source Step = 98.5304%
Source Step = 98.7937%
Source Step = 99.057%
Source Step = 99.3203%
Source Step = 99.5836%
vernier = 0.0130333
Source Step = 99.7547%
Source Step = 99.8535%
Source Step = 99.9522%
Source Step = 100%
Source Step = 100%
Source stepping succeeded in finding the operating point.


Date: Thu Feb 29 12:12:13 2024
Total elapsed time: 0.159 seconds.

tnom = 27
temp = 27
method = trap
totiter = 12471
traniter = 0
tranpoints = 0
accept = 0
rejected = 0
matrix size = 22
fillins = 27
solver = Normal
Matrix Compiler1:     109 opcodes
Matrix Compiler2: off  [0.3]/0.4/0.8

