Circuit: * C:\Users\HoP\Documents\GitHub\LTspice\0x-lib\Draft1.asc

Direct Newton iteration for .op point succeeded.

Date: Fri Aug 26 22:14:38 2022
Total elapsed time: 0.137 seconds.

tnom = 27
temp = 27
method = modified trap
totiter = 2085
traniter = 2082
tranpoints = 1042
accept = 1042
rejected = 0
matrix size = 3
fillins = 0
solver = Normal
Matrix Compiler1:       3 opcodes  0.1/[0.0]/0.1
Matrix Compiler2: 175 bytes object code size  0.1/0.1/[0.1]

