LTspice 24.0.9 for Windows
Circuit: * Copyright 2016 Broadcom Limited. All Right Reserved
Start Time: Fri Jul  5 12:43:37 2024
Fatal Error: No analysis request found.
