LTspice 24.0.9 for Windows
Circuit: *August 11, 2008
Start Time: Fri Aug 30 17:03:32 2024
Fatal Error: No analysis request found.
