Circuit: * C:\Users\SGI-U3\Documents\GitHub\LTspice\02-basics\05-invertin_amplifier.asc

Direct Newton iteration for .op point succeeded.

Date: Tue Feb 27 11:22:36 2024
Total elapsed time: 0.163 seconds.

tnom = 27
temp = 27
method = modified trap
totiter = 2104
traniter = 2088
tranpoints = 1045
accept = 1045
rejected = 0
matrix size = 11
fillins = 2
solver = Normal
Avg thread counts: 2.3/3.6/3.6/2.3
Matrix Compiler1: 606 bytes object code size  0.6/0.4/[0.3]
Matrix Compiler2: 1017 bytes object code size  0.3/0.4/[0.3]

