Circuit: * C:\Users\SGI-U3\Documents\GitHub\LTspice\02-basics\06-invertin_amplifier_bode.asc

Direct Newton iteration for .op point succeeded.

Date: Tue Feb 27 11:29:09 2024
Total elapsed time: 0.078 seconds.

tnom = 27
temp = 27
method = trap
totiter = 16
traniter = 0
tranpoints = 0
accept = 0
rejected = 0
matrix size = 11
fillins = 2
solver = Normal
Avg thread counts: 8.0/0.0/8.0/5.1
Matrix Compiler1:      34 opcodes
Matrix Compiler2: 1017 bytes object code size
