Circuit: * C:\Users\SGI-U3\Documents\GitHub\LTspice\02-basics\07-non_inverting_amplifier.asc

Direct Newton iteration for .op point succeeded.

Date: Tue Feb 27 17:22:35 2024
Total elapsed time: 0.146 seconds.

tnom = 27
temp = 27
method = modified trap
totiter = 2109
traniter = 2092
tranpoints = 1047
accept = 1046
rejected = 1
matrix size = 11
fillins = 2
solver = Normal
Avg thread counts: 3.3/3.6/3.6/2.3
Matrix Compiler1: 642 bytes object code size  0.6/0.5/[0.3]
Matrix Compiler2: 1.08 KB object code size  0.3/0.4/[0.3]

