Circuit: * C:\Users\SGI-U3\Documents\GitHub\LTspice\02-basics\12-differentiator_bode.asc

Direct Newton iteration for .op point succeeded.

max_mag: MAX(mag(v(out)))=(86.5647dB,0°) FROM 10 TO 1e+06
peak_freq: mag(v(out))=86.5647db AT 7714.62
peak_phase: ph(v(out))=(39.1432dB,180°) at 7714.62


Date: Wed Feb 28 12:00:12 2024
Total elapsed time: 0.153 seconds.

tnom = 27
temp = 27
method = trap
totiter = 11
traniter = 0
tranpoints = 0
accept = 0
rejected = 0
matrix size = 11
fillins = 2
solver = Normal
Avg thread counts: 8.0/0.0/8.0/1.5
Matrix Compiler1:      34 opcodes
Matrix Compiler2: 1017 bytes object code size
