Circuit: * C:\Users\SGI-U3\Documents\GitHub\LTspice\02-basics\14-integrator_bode.asc

Direct Newton iteration failed to find .op point.  (Use ".option noopiter" to skip.)
Starting Gmin stepping
Gmin = 10
Gmin = 1.07374
vernier = 0.5
vernier = 0.25
vernier = 0.125
vernier = 0.0625
Gmin = 1.10559
vernier = 0.03125
vernier = 0.015625
Gmin = 1.04709
vernier = 0.0208333
vernier = 0.0104167
vernier = 0.00520833
Gmin = 1.0282
vernier = 0.00694444
vernier = 0.00347222
Gmin = 1.01932
vernier = 0.00462963
vernier = 0.00231481
vernier = 0.00308642
vernier = 0.00154321
Gmin = 1.0155
vernier = 0.00205761
vernier = 0.00102881
Gmin = 1.0125
vernier = 0.00137174
vernier = 0.00068587
Gmin = 1.01033
vernier = 0.000914493
vernier = 0.000457247
Gmin = 1.00866
vernier = 0.000609662
Gmin = 1.00731
vernier = 0.000812882
vernier = 0.000406441
vernier = 0.000541921
vernier = 0.000406441
Gmin = 1.00665
vernier = 0.000541921
vernier = 0.000406441
Gmin = 1.00583
Gmin = 0
Gmin stepping failed

Starting source stepping with srcstepmethod=0
Source Step = 3.0303%
Source Step = 33.3333%
Source Step = 63.6364%
Source Step = 93.9394%
Source stepping succeeded in finding the operating point.


Date: Wed Feb 28 14:55:49 2024
Total elapsed time: 0.274 seconds.

tnom = 27
temp = 27
method = trap
totiter = 8100
traniter = 0
tranpoints = 0
accept = 0
rejected = 0
matrix size = 11
fillins = 2
solver = Normal
Avg thread counts: 1.3/0.0/8.0/1.2
Matrix Compiler1:      34 opcodes
Matrix Compiler2: off  [0.3]/0.4/0.6

