Circuit: * C:\Users\HoP\Documents\GitHub\LTspice\10-opamp_basics\15-logarithmic.asc

Direct Newton iteration for .op point succeeded.

Date: Fri Mar 01 12:02:05 2024
Total elapsed time: 0.183 seconds.

tnom = 27
temp = 27
method = modified trap
totiter = 2099
traniter = 2086
tranpoints = 1044
accept = 1044
rejected = 0
matrix size = 12
fillins = 3
solver = Normal
Matrix Compiler1: 624 bytes object code size  0.2/0.1/[0.1]
Matrix Compiler2: off  [0.1]/0.2/0.2

