Circuit: * C:\Users\HoP\Documents\GitHub\LTspice\10-opamp_basics\16-anti_logarithmic.asc

Direct Newton iteration for .op point succeeded.

Date: Fri Mar 01 13:25:51 2024
Total elapsed time: 0.184 seconds.

tnom = 27
temp = 27
method = modified trap
totiter = 2091
traniter = 2082
tranpoints = 1042
accept = 1042
rejected = 0
matrix size = 12
fillins = 2
solver = Normal
Matrix Compiler1:      35 opcodes  0.2/[0.1]/0.1
Matrix Compiler2: off  [0.1]/0.2/0.2

