Circuit: * C:\Users\HoP\Documents\GitHub\LTspice\10-opamp_basics\17-comparator.asc

Direct Newton iteration failed to find .op point.  (Use ".option noopiter" to skip.)
Starting Gmin stepping
Gmin = 10
Gmin = 1.07374
vernier = 0.5
vernier = 0.25
vernier = 0.125
vernier = 0.0625
Gmin = 1.10559
vernier = 0.03125
vernier = 0.015625
Gmin = 1.04709
vernier = 0.0208333
vernier = 0.0104167
vernier = 0.00520833
Gmin = 1.0282
vernier = 0.00694444
vernier = 0.00347222
Gmin = 1.01932
vernier = 0.00462963
vernier = 0.00231481
vernier = 0.00308642
vernier = 0.00154321
Gmin = 1.0155
vernier = 0.00205761
vernier = 0.00102881
Gmin = 1.0125
vernier = 0.00137174
vernier = 0.00068587
Gmin = 1.01033
vernier = 0.000914493
vernier = 0.000457247
Gmin = 1.00866
vernier = 0.000609662
Gmin = 1.00731
vernier = 0.000812882
vernier = 0.000406441
vernier = 0.000541921
vernier = 0.000406441
Gmin = 1.00665
vernier = 0.000541921
vernier = 0.000406441
Gmin = 1.00583
Gmin = 0
Gmin stepping failed

Starting source stepping with srcstepmethod=0
Source Step = 3.0303%
Source Step = 33.3333%
Source Step = 63.6364%
Source Step = 93.9394%
Source stepping succeeded in finding the operating point.


Date: Fri Mar 01 17:03:45 2024
Total elapsed time: 0.337 seconds.

tnom = 27
temp = 27
method = modified trap
totiter = 10853
traniter = 2693
tranpoints = 1187
accept = 1141
rejected = 46
matrix size = 12
fillins = 0
solver = Normal
Matrix Compiler1: 522 bytes object code size  0.2/0.1/[0.1]
Matrix Compiler2: 1.06 KB object code size  0.2/0.2/[0.1]

