LTspice 24.0.9 for Windows
Circuit: * C:\Users\s\Documents\GitHub\LTspice\37-reference_voltage\02-REF5025_monte_carlo_voltage_divider.asc
Start Time: Sun Mar  9 20:19:53 2025
solver = Normal
Maximum thread count: 4



Instance "m:u1:3": Length shorter than recommended for a level 1 MOSFET.
Instance "m:u1:10": Length shorter than recommended for a level 1 MOSFET.
Instance "m:u1:4": Length shorter than recommended for a level 1 MOSFET.
Instance "m:u1:5": Length shorter than recommended for a level 1 MOSFET.
Instance "m:u1:6": Length shorter than recommended for a level 1 MOSFET.
Instance "m:u1:7": Length shorter than recommended for a level 1 MOSFET.
Instance "m:u1:18": Length shorter than recommended for a level 1 MOSFET.
Instance "m:u1:19": Length shorter than recommended for a level 1 MOSFET.
Instance "m:u1:20": Length shorter than recommended for a level 1 MOSFET.
Instance "m:u1:21": Length shorter than recommended for a level 1 MOSFET.
Instance "m:u1:25": Length shorter than recommended for a level 1 MOSFET.
Instance "m:u1:23": Length shorter than recommended for a level 1 MOSFET.
Instance "m:u1:24": Length shorter than recommended for a level 1 MOSFET.
Instance "m:u1:26": Length shorter than recommended for a level 1 MOSFET.
Instance "m:u1:27": Length shorter than recommended for a level 1 MOSFET.
Instance "m:u1:29": Length shorter than recommended for a level 1 MOSFET.
Direct Newton iteration failed to find .op point.  (Use ".option noopiter" to skip.)
Starting Gmin stepping
Gmin = 10
vernier = 0.5
Gmin = 1.86414
vernier = 0.25
vernier = 0.125
vernier = 0.0625
vernier = 0.03125
vernier = 0.015625
Gmin = 2.0336
vernier = 0.0078125
vernier = 0.00390625
vernier = 0.00195312
vernier = 0.000976562
Gmin = 2.03261
vernier = 0.000488281
Gmin = 0
Gmin stepping failed

Starting source stepping with srcstepmethod=0
Source Step = 3.0303%
Source Step = 33.3333%
Source Step = 49.2424%
Source Step = 56.8182%
Source Step = 64.3939%
Source Step = 71.9697%
Source Step = 79.5455%
vernier = 0.375
Source Step = 88.6364%
vernier = 0.09375
Source Step = 90.3409%
Source Step = 93.1818%
Source Step = 96.0227%
Source Step = 98.8636%
Source stepping succeeded in finding the operating point.

.step temp=0°C x=1



.step temp=10°C x=1



.step temp=20°C x=1



.step temp=30°C x=1



.step temp=40°C x=1



.step temp=50°C x=1



.step temp=0°C x=2



.step temp=10°C x=2



.step temp=20°C x=2



.step temp=30°C x=2



.step temp=40°C x=2



.step temp=50°C x=2



.step temp=0°C x=3



.step temp=10°C x=3



.step temp=20°C x=3



.step temp=30°C x=3



.step temp=40°C x=3



.step temp=50°C x=3



.step temp=0°C x=4



.step temp=10°C x=4



.step temp=20°C x=4



.step temp=30°C x=4



.step temp=40°C x=4



.step temp=50°C x=4



.step temp=0°C x=5



.step temp=10°C x=5



.step temp=20°C x=5



.step temp=30°C x=5



.step temp=40°C x=5



.step temp=50°C x=5



.step temp=0°C x=6



.step temp=10°C x=6



.step temp=20°C x=6



.step temp=30°C x=6



.step temp=40°C x=6



.step temp=50°C x=6



.step temp=0°C x=7



.step temp=10°C x=7



.step temp=20°C x=7



.step temp=30°C x=7



.step temp=40°C x=7



.step temp=50°C x=7



.step temp=0°C x=8



.step temp=10°C x=8



.step temp=20°C x=8



.step temp=30°C x=8



.step temp=40°C x=8



.step temp=50°C x=8



.step temp=0°C x=9



.step temp=10°C x=9



.step temp=20°C x=9



.step temp=30°C x=9



.step temp=40°C x=9



.step temp=50°C x=9



.step temp=0°C x=10



.step temp=10°C x=10



.step temp=20°C x=10



.step temp=30°C x=10



.step temp=40°C x=10



.step temp=50°C x=10



.step temp=0°C x=11



.step temp=10°C x=11



.step temp=20°C x=11



.step temp=30°C x=11



.step temp=40°C x=11



.step temp=50°C x=11



.step temp=0°C x=12



.step temp=10°C x=12



.step temp=20°C x=12



.step temp=30°C x=12



.step temp=40°C x=12



.step temp=50°C x=12



.step temp=0°C x=13



.step temp=10°C x=13



.step temp=20°C x=13



.step temp=30°C x=13



.step temp=40°C x=13



.step temp=50°C x=13



.step temp=0°C x=14



.step temp=10°C x=14



.step temp=20°C x=14



.step temp=30°C x=14



.step temp=40°C x=14



.step temp=50°C x=14



.step temp=0°C x=15



.step temp=10°C x=15



.step temp=20°C x=15



.step temp=30°C x=15



.step temp=40°C x=15



.step temp=50°C x=15



.step temp=0°C x=16



.step temp=10°C x=16



.step temp=20°C x=16



.step temp=30°C x=16



.step temp=40°C x=16



.step temp=50°C x=16



.step temp=0°C x=17



.step temp=10°C x=17



.step temp=20°C x=17



.step temp=30°C x=17



.step temp=40°C x=17



.step temp=50°C x=17



.step temp=0°C x=18



.step temp=10°C x=18



.step temp=20°C x=18



.step temp=30°C x=18



.step temp=40°C x=18



.step temp=50°C x=18



.step temp=0°C x=19



.step temp=10°C x=19



.step temp=20°C x=19



.step temp=30°C x=19



.step temp=40°C x=19



.step temp=50°C x=19



.step temp=0°C x=20



.step temp=10°C x=20



.step temp=20°C x=20



.step temp=30°C x=20



.step temp=40°C x=20



.step temp=50°C x=20



.step temp=0°C x=21



.step temp=10°C x=21



.step temp=20°C x=21



.step temp=30°C x=21



.step temp=40°C x=21



.step temp=50°C x=21



.step temp=0°C x=22



.step temp=10°C x=22



.step temp=20°C x=22



.step temp=30°C x=22



.step temp=40°C x=22



.step temp=50°C x=22



.step temp=0°C x=23



.step temp=10°C x=23



.step temp=20°C x=23



.step temp=30°C x=23



.step temp=40°C x=23



.step temp=50°C x=23



.step temp=0°C x=24



.step temp=10°C x=24



.step temp=20°C x=24



.step temp=30°C x=24



.step temp=40°C x=24



.step temp=50°C x=24



.step temp=0°C x=25



.step temp=10°C x=25



.step temp=20°C x=25



.step temp=30°C x=25



.step temp=40°C x=25



.step temp=50°C x=25



.step temp=0°C x=26



.step temp=10°C x=26



.step temp=20°C x=26



.step temp=30°C x=26



.step temp=40°C x=26



.step temp=50°C x=26



.step temp=0°C x=27



.step temp=10°C x=27



.step temp=20°C x=27



.step temp=30°C x=27



.step temp=40°C x=27



.step temp=50°C x=27



.step temp=0°C x=28



.step temp=10°C x=28



.step temp=20°C x=28



.step temp=30°C x=28



.step temp=40°C x=28



.step temp=50°C x=28



.step temp=0°C x=29



.step temp=10°C x=29



.step temp=20°C x=29



.step temp=30°C x=29



.step temp=40°C x=29



.step temp=50°C x=29



.step temp=0°C x=30



.step temp=10°C x=30



.step temp=20°C x=30



.step temp=30°C x=30



.step temp=40°C x=30



.step temp=50°C x=30



.step temp=0°C x=31



.step temp=10°C x=31



.step temp=20°C x=31



.step temp=30°C x=31



.step temp=40°C x=31



.step temp=50°C x=31



.step temp=0°C x=32



.step temp=10°C x=32



.step temp=20°C x=32



.step temp=30°C x=32



.step temp=40°C x=32



.step temp=50°C x=32



.step temp=0°C x=33



.step temp=10°C x=33



.step temp=20°C x=33



.step temp=30°C x=33



.step temp=40°C x=33



.step temp=50°C x=33



.step temp=0°C x=34



.step temp=10°C x=34



.step temp=20°C x=34



.step temp=30°C x=34



.step temp=40°C x=34



.step temp=50°C x=34



.step temp=0°C x=35



.step temp=10°C x=35



.step temp=20°C x=35



.step temp=30°C x=35



.step temp=40°C x=35



.step temp=50°C x=35



.step temp=0°C x=36



.step temp=10°C x=36



.step temp=20°C x=36



.step temp=30°C x=36



.step temp=40°C x=36



.step temp=50°C x=36



.step temp=0°C x=37



.step temp=10°C x=37



.step temp=20°C x=37



.step temp=30°C x=37



.step temp=40°C x=37



.step temp=50°C x=37



.step temp=0°C x=38



.step temp=10°C x=38



.step temp=20°C x=38



.step temp=30°C x=38



.step temp=40°C x=38



.step temp=50°C x=38



.step temp=0°C x=39



.step temp=10°C x=39



.step temp=20°C x=39



.step temp=30°C x=39



.step temp=40°C x=39



.step temp=50°C x=39



.step temp=0°C x=40



.step temp=10°C x=40



.step temp=20°C x=40



.step temp=30°C x=40



.step temp=40°C x=40



.step temp=50°C x=40



.step temp=0°C x=41



.step temp=10°C x=41



.step temp=20°C x=41



.step temp=30°C x=41



.step temp=40°C x=41



.step temp=50°C x=41



.step temp=0°C x=42



.step temp=10°C x=42



.step temp=20°C x=42



.step temp=30°C x=42



.step temp=40°C x=42



.step temp=50°C x=42



.step temp=0°C x=43



.step temp=10°C x=43



.step temp=20°C x=43



.step temp=30°C x=43



.step temp=40°C x=43



.step temp=50°C x=43



.step temp=0°C x=44



.step temp=10°C x=44



.step temp=20°C x=44



.step temp=30°C x=44



.step temp=40°C x=44



.step temp=50°C x=44



.step temp=0°C x=45



.step temp=10°C x=45



.step temp=20°C x=45



.step temp=30°C x=45



.step temp=40°C x=45



.step temp=50°C x=45



.step temp=0°C x=46



.step temp=10°C x=46



.step temp=20°C x=46



.step temp=30°C x=46



.step temp=40°C x=46



.step temp=50°C x=46



.step temp=0°C x=47



.step temp=10°C x=47



.step temp=20°C x=47



.step temp=30°C x=47



.step temp=40°C x=47



.step temp=50°C x=47



.step temp=0°C x=48



.step temp=10°C x=48



.step temp=20°C x=48



.step temp=30°C x=48



.step temp=40°C x=48



.step temp=50°C x=48



.step temp=0°C x=49



.step temp=10°C x=49



.step temp=20°C x=49



.step temp=30°C x=49



.step temp=40°C x=49



.step temp=50°C x=49



.step temp=0°C x=50



.step temp=10°C x=50



.step temp=20°C x=50



.step temp=30°C x=50



.step temp=40°C x=50
tnom = 27
temp = 50
method = modified trap
.step temp=50°C x=50


Measurement: vout_avg
  step	AVG(v(output))	FROM	TO
     1	2.52951e-06	0	0.0002
     2	2.53209e-06	0	0.0002
     3	2.49587e-06	0	0.0002
     4	2.5285e-06	0	0.0002
     5	2.49733e-06	0	0.0002
     6	2.53558e-06	0	0.0002
     7	2.49128e-06	0	0.0002
     8	2.4866e-06	0	0.0002
     9	2.51489e-06	0	0.0002
    10	2.50206e-06	0	0.0002
    11	2.47423e-06	0	0.0002
    12	2.49533e-06	0	0.0002
    13	2.51973e-06	0	0.0002
    14	2.50309e-06	0	0.0002
    15	2.50139e-06	0	0.0002
    16	2.52614e-06	0	0.0002
    17	2.49617e-06	0	0.0002
    18	2.52889e-06	0	0.0002
    19	2.50205e-06	0	0.0002
    20	2.49022e-06	0	0.0002
    21	2.49371e-06	0	0.0002
    22	2.49963e-06	0	0.0002
    23	2.48127e-06	0	0.0002
    24	2.48975e-06	0	0.0002
    25	2.46868e-06	0	0.0002
    26	2.5043e-06	0	0.0002
    27	2.50127e-06	0	0.0002
    28	2.49019e-06	0	0.0002
    29	2.50268e-06	0	0.0002
    30	2.46054e-06	0	0.0002
    31	2.48689e-06	0	0.0002
    32	2.47016e-06	0	0.0002
    33	2.54709e-06	0	0.0002
    34	2.50097e-06	0	0.0002
    35	2.50627e-06	0	0.0002
    36	2.49558e-06	0	0.0002
    37	2.48711e-06	0	0.0002
    38	2.48741e-06	0	0.0002
    39	2.52571e-06	0	0.0002
    40	2.46946e-06	0	0.0002
    41	2.49044e-06	0	0.0002
    42	2.49483e-06	0	0.0002
    43	2.49055e-06	0	0.0002
    44	2.50482e-06	0	0.0002
    45	2.52005e-06	0	0.0002
    46	2.52477e-06	0	0.0002
    47	2.48091e-06	0	0.0002
    48	2.52569e-06	0	0.0002
    49	2.47966e-06	0	0.0002
    50	2.4914e-06	0	0.0002
    51	2.54153e-06	0	0.0002
    52	2.53959e-06	0	0.0002
    53	2.48169e-06	0	0.0002
    54	2.48326e-06	0	0.0002
    55	2.48705e-06	0	0.0002
    56	2.53758e-06	0	0.0002
    57	2.48921e-06	0	0.0002
    58	2.50044e-06	0	0.0002
    59	2.48412e-06	0	0.0002
    60	2.51865e-06	0	0.0002
    61	2.48484e-06	0	0.0002
    62	2.51564e-06	0	0.0002
    63	2.50479e-06	0	0.0002
    64	2.48884e-06	0	0.0002
    65	2.51345e-06	0	0.0002
    66	2.46137e-06	0	0.0002
    67	2.50839e-06	0	0.0002
    68	2.48501e-06	0	0.0002
    69	2.49974e-06	0	0.0002
    70	2.49095e-06	0	0.0002
    71	2.49627e-06	0	0.0002
    72	2.47477e-06	0	0.0002
    73	2.49187e-06	0	0.0002
    74	2.46717e-06	0	0.0002
    75	2.49256e-06	0	0.0002
    76	2.52957e-06	0	0.0002
    77	2.47917e-06	0	0.0002
    78	2.52057e-06	0	0.0002
    79	2.54993e-06	0	0.0002
    80	2.47504e-06	0	0.0002
    81	2.48426e-06	0	0.0002
    82	2.49038e-06	0	0.0002
    83	2.47819e-06	0	0.0002
    84	2.46539e-06	0	0.0002
    85	2.53302e-06	0	0.0002
    86	2.5326e-06	0	0.0002
    87	2.50365e-06	0	0.0002
    88	2.53099e-06	0	0.0002
    89	2.49482e-06	0	0.0002
    90	2.50844e-06	0	0.0002
    91	2.49565e-06	0	0.0002
    92	2.50411e-06	0	0.0002
    93	2.50343e-06	0	0.0002
    94	2.49634e-06	0	0.0002
    95	2.47418e-06	0	0.0002
    96	2.51828e-06	0	0.0002
    97	2.49781e-06	0	0.0002
    98	2.47765e-06	0	0.0002
    99	2.48936e-06	0	0.0002
   100	2.4809e-06	0	0.0002
   101	2.49088e-06	0	0.0002
   102	2.49884e-06	0	0.0002
   103	2.47772e-06	0	0.0002
   104	2.52407e-06	0	0.0002
   105	2.51254e-06	0	0.0002
   106	2.50847e-06	0	0.0002
   107	2.54224e-06	0	0.0002
   108	2.52816e-06	0	0.0002
   109	2.5277e-06	0	0.0002
   110	2.51843e-06	0	0.0002
   111	2.45733e-06	0	0.0002
   112	2.47112e-06	0	0.0002
   113	2.52836e-06	0	0.0002
   114	2.49064e-06	0	0.0002
   115	2.4999e-06	0	0.0002
   116	2.50185e-06	0	0.0002
   117	2.50296e-06	0	0.0002
   118	2.49983e-06	0	0.0002
   119	2.50591e-06	0	0.0002
   120	2.49158e-06	0	0.0002
   121	2.52896e-06	0	0.0002
   122	2.5186e-06	0	0.0002
   123	2.49841e-06	0	0.0002
   124	2.5058e-06	0	0.0002
   125	2.48946e-06	0	0.0002
   126	2.48039e-06	0	0.0002
   127	2.49469e-06	0	0.0002
   128	2.50465e-06	0	0.0002
   129	2.46854e-06	0	0.0002
   130	2.51569e-06	0	0.0002
   131	2.48639e-06	0	0.0002
   132	2.46702e-06	0	0.0002
   133	2.51649e-06	0	0.0002
   134	2.51388e-06	0	0.0002
   135	2.4945e-06	0	0.0002
   136	2.53946e-06	0	0.0002
   137	2.49581e-06	0	0.0002
   138	2.50976e-06	0	0.0002
   139	2.50095e-06	0	0.0002
   140	2.51005e-06	0	0.0002
   141	2.49628e-06	0	0.0002
   142	2.4956e-06	0	0.0002
   143	2.5029e-06	0	0.0002
   144	2.50968e-06	0	0.0002
   145	2.47998e-06	0	0.0002
   146	2.5077e-06	0	0.0002
   147	2.49376e-06	0	0.0002
   148	2.53346e-06	0	0.0002
   149	2.49801e-06	0	0.0002
   150	2.48815e-06	0	0.0002
   151	2.51839e-06	0	0.0002
   152	2.54165e-06	0	0.0002
   153	2.48458e-06	0	0.0002
   154	2.5213e-06	0	0.0002
   155	2.50429e-06	0	0.0002
   156	2.48281e-06	0	0.0002
   157	2.47376e-06	0	0.0002
   158	2.49544e-06	0	0.0002
   159	2.51596e-06	0	0.0002
   160	2.49478e-06	0	0.0002
   161	2.49334e-06	0	0.0002
   162	2.49056e-06	0	0.0002
   163	2.53656e-06	0	0.0002
   164	2.52746e-06	0	0.0002
   165	2.48266e-06	0	0.0002
   166	2.48866e-06	0	0.0002
   167	2.52144e-06	0	0.0002
   168	2.49132e-06	0	0.0002
   169	2.48499e-06	0	0.0002
   170	2.51107e-06	0	0.0002
   171	2.53195e-06	0	0.0002
   172	2.48428e-06	0	0.0002
   173	2.51637e-06	0	0.0002
   174	2.53054e-06	0	0.0002
   175	2.53715e-06	0	0.0002
   176	2.48783e-06	0	0.0002
   177	2.50771e-06	0	0.0002
   178	2.50677e-06	0	0.0002
   179	2.49659e-06	0	0.0002
   180	2.49347e-06	0	0.0002
   181	2.52401e-06	0	0.0002
   182	2.50003e-06	0	0.0002
   183	2.51584e-06	0	0.0002
   184	2.50135e-06	0	0.0002
   185	2.50534e-06	0	0.0002
   186	2.50619e-06	0	0.0002
   187	2.52555e-06	0	0.0002
   188	2.49366e-06	0	0.0002
   189	2.53733e-06	0	0.0002
   190	2.51937e-06	0	0.0002
   191	2.48758e-06	0	0.0002
   192	2.48498e-06	0	0.0002
   193	2.49102e-06	0	0.0002
   194	2.46764e-06	0	0.0002
   195	2.52644e-06	0	0.0002
   196	2.49588e-06	0	0.0002
   197	2.49472e-06	0	0.0002
   198	2.52596e-06	0	0.0002
   199	2.53304e-06	0	0.0002
   200	2.50213e-06	0	0.0002
   201	2.52324e-06	0	0.0002
   202	2.50252e-06	0	0.0002
   203	2.49622e-06	0	0.0002
   204	2.50938e-06	0	0.0002
   205	2.4684e-06	0	0.0002
   206	2.50003e-06	0	0.0002
   207	2.45889e-06	0	0.0002
   208	2.50171e-06	0	0.0002
   209	2.53014e-06	0	0.0002
   210	2.50281e-06	0	0.0002
   211	2.49569e-06	0	0.0002
   212	2.5165e-06	0	0.0002
   213	2.48638e-06	0	0.0002
   214	2.48831e-06	0	0.0002
   215	2.52257e-06	0	0.0002
   216	2.4932e-06	0	0.0002
   217	2.48459e-06	0	0.0002
   218	2.51414e-06	0	0.0002
   219	2.5239e-06	0	0.0002
   220	2.5483e-06	0	0.0002
   221	2.51033e-06	0	0.0002
   222	2.47941e-06	0	0.0002
   223	2.50918e-06	0	0.0002
   224	2.52201e-06	0	0.0002
   225	2.53026e-06	0	0.0002
   226	2.46187e-06	0	0.0002
   227	2.49371e-06	0	0.0002
   228	2.50664e-06	0	0.0002
   229	2.50887e-06	0	0.0002
   230	2.52866e-06	0	0.0002
   231	2.5036e-06	0	0.0002
   232	2.54342e-06	0	0.0002
   233	2.50421e-06	0	0.0002
   234	2.52463e-06	0	0.0002
   235	2.45701e-06	0	0.0002
   236	2.49459e-06	0	0.0002
   237	2.4832e-06	0	0.0002
   238	2.53278e-06	0	0.0002
   239	2.51752e-06	0	0.0002
   240	2.49795e-06	0	0.0002
   241	2.51522e-06	0	0.0002
   242	2.46162e-06	0	0.0002
   243	2.47825e-06	0	0.0002
   244	2.53653e-06	0	0.0002
   245	2.54153e-06	0	0.0002
   246	2.5058e-06	0	0.0002
   247	2.51347e-06	0	0.0002
   248	2.53885e-06	0	0.0002
   249	2.51577e-06	0	0.0002
   250	2.53534e-06	0	0.0002
   251	2.51189e-06	0	0.0002
   252	2.50404e-06	0	0.0002
   253	2.52461e-06	0	0.0002
   254	2.50378e-06	0	0.0002
   255	2.53051e-06	0	0.0002
   256	2.50168e-06	0	0.0002
   257	2.47861e-06	0	0.0002
   258	2.48835e-06	0	0.0002
   259	2.52555e-06	0	0.0002
   260	2.49375e-06	0	0.0002
   261	2.48117e-06	0	0.0002
   262	2.49902e-06	0	0.0002
   263	2.50824e-06	0	0.0002
   264	2.48536e-06	0	0.0002
   265	2.47132e-06	0	0.0002
   266	2.51722e-06	0	0.0002
   267	2.47517e-06	0	0.0002
   268	2.49902e-06	0	0.0002
   269	2.49164e-06	0	0.0002
   270	2.50575e-06	0	0.0002
   271	2.51327e-06	0	0.0002
   272	2.52313e-06	0	0.0002
   273	2.48152e-06	0	0.0002
   274	2.49748e-06	0	0.0002
   275	2.53098e-06	0	0.0002
   276	2.53686e-06	0	0.0002
   277	2.49448e-06	0	0.0002
   278	2.50517e-06	0	0.0002
   279	2.51303e-06	0	0.0002
   280	2.50853e-06	0	0.0002
   281	2.49193e-06	0	0.0002
   282	2.50945e-06	0	0.0002
   283	2.50129e-06	0	0.0002
   284	2.47158e-06	0	0.0002
   285	2.51027e-06	0	0.0002
   286	2.52019e-06	0	0.0002
   287	2.50067e-06	0	0.0002
   288	2.47123e-06	0	0.0002
   289	2.50474e-06	0	0.0002
   290	2.51261e-06	0	0.0002
   291	2.50864e-06	0	0.0002
   292	2.54136e-06	0	0.0002
   293	2.51696e-06	0	0.0002
   294	2.49031e-06	0	0.0002
   295	2.47133e-06	0	0.0002
   296	2.50092e-06	0	0.0002
   297	2.51765e-06	0	0.0002
   298	2.52071e-06	0	0.0002
   299	2.51382e-06	0	0.0002
   300	2.53177e-06	0	0.0002

Total elapsed time: 236.881 seconds.

