LTspice 24.0.9 for Windows
Circuit: * C:\Users\hop\Documents\GitHub\LTspice\30-bjt\01-dtc143zka_vb_vs_ic.asc
Start Time: Wed Jan 29 16:28:33 2025
solver = Normal
Maximum thread count: 4
tnom = 27
temp = 27
method = modified trap
Total elapsed time: 0.091 seconds.

