Circuit: * C:\Users\LP\Documents\GitHub\LTspice\04-ferrite bead - supply filter\BLM18HG471SN1\01_500KHz_filter.asc


Date: Mon Oct 03 12:33:48 2022
Total elapsed time: 0.020 seconds.

tnom = 27
temp = 27
method = trap
totiter = 0
traniter = 0
tranpoints = 0
accept = 0
rejected = 0
matrix size = 7
fillins = 3
solver = Normal

