LTspice 24.0.9 for Windows
Circuit: * C:\Users\hop\Documents\GitHub\LTspice\20-digital_isolator\01-tlp2770.asc
Start Time: Fri Jul  5 12:10:16 2024
solver = Normal
Maximum thread count: 4
tnom = 27
temp = 27
method = modified trap
Direct Newton iteration for .op point succeeded.
Heightened Def Con from 3.58161e-08 to 3.58207e-08
Heightened Def Con from 3.5916e-08 to 3.9516e-08
Heightened Def Con from 7.50103e-07 to 7.5038e-07
Total elapsed time: 0.148 seconds.

