LTspice 24.0.9 for Windows
Circuit: * C:\Users\hop\Documents\GitHub\LTspice\20-digital_isolator\02-hcpl2400.asc
Start Time: Fri Jul  5 13:19:28 2024
solver = Normal
Maximum thread count: 4
tnom = 27
temp = 27
method = modified trap
WARNING: Less than two connections to node outs.  This node is used by a1.
Direct Newton iteration failed to find .op point.  (Use ".option noopiter" to skip.)
Starting Gmin stepping
Gmin = 10
Gmin = 1.07374
Gmin = 0.115292
Gmin = 0.0123794
Gmin = 0.00132923
Gmin = 0.000142725
vernier = 0.5
Gmin = 4.05515e-05
vernier = 0.666667
vernier = 0.888888
Gmin = 7.20652e-06
vernier = 1
Gmin = 8.09366e-07
Gmin = 8.6905e-08
Gmin = 9.33136e-09
Gmin = 1.00195e-09
Gmin = 1.07583e-10
Gmin = 1.15517e-11
Gmin = 1.24035e-12
Gmin = 1.33182e-13
Gmin = 0
Gmin stepping succeeded in finding the operating point.

Ignoring empty pin current: Ix(u1:nc)
Ignoring empty pin current: Ix(u1:nc)
Ignoring empty pin current: Ix(u1:nc)
Ignoring empty pin current: Ix(u1:nc)
Total elapsed time: 0.341 seconds.

