LTspice 24.0.9 for Windows
Circuit: * C:\Users\s\Documents\GitHub\LTspice\24-mosfet\03-switching_loss_resistive_inductive.asc
Start Time: Tue Jan 21 15:48:21 2025
solver = Normal
Maximum thread count: 4
tnom = 27
temp = 27
method = modified trap
Direct Newton iteration for .op point succeeded.
Total elapsed time: 6.454 seconds.

