LTspice 24.0.9 for Windows
Circuit: * C:\Users\hop\Documents\GitHub\LTspice\27-inductor\01-33uH_model_omicron_lab.asc
Start Time: Tue Jan 14 20:08:38 2025
solver = Normal
Maximum thread count: 4
tnom = 27
temp = 27
method = modified trap
.OP point found by inspection.
Total elapsed time: 0.099 seconds.

