LTspice 24.0.9 for Windows
Circuit: * C:\Users\s\Documents\GitHub\LTspice\27-inductor\02-CDRH127-LDNP-100MC_linear_model.asc
Start Time: Sat Jan 18 11:05:21 2025
solver = Normal
Maximum thread count: 4
tnom = 27
temp = 27
method = modified trap
.OP point found by inspection.
Total elapsed time: 0.053 seconds.

