LTspice 24.0.9 for Windows
Circuit: * C:\Users\hop\Documents\GitHub\LTspice\27-inductor\03-MSS1038-103_non-linear_model.asc
Start Time: Tue Apr  8 13:52:09 2025
solver = Normal
Maximum thread count: 4
tnom = 27
temp = 27
method = modified trap
rvar2: Trouble evaluating Laplacian at DC.
rvar1: Trouble evaluating Laplacian at DC.
lvar: Trouble evaluating Laplacian at DC.
.OP point found by inspection.
Total elapsed time: 0.145 seconds.

