LTspice 24.0.9 for Windows
Circuit: * C:\Users\s\Documents\GitHub\LTspice\27-inductor\05-1264EY100M_murata_encrypted_model.asc
Start Time: Sat Jan 18 17:17:17 2025
solver = Normal
Maximum thread count: 4
tnom = 27
temp = 27
method = modified trap
.OP point found by inspection.
Total elapsed time: 0.066 seconds.

