LTspice 24.0.9 for Windows
Circuit: * C:\Users\s\Documents\GitHub\LTspice\27-inductor\06-SRR1205-100ML_bourns_linear_model.asc
Start Time: Sat Jan 18 17:26:09 2025
solver = Normal
Maximum thread count: 4
tnom = 27
temp = 27
method = modified trap
.OP point found by inspection.
Total elapsed time: 0.070 seconds.

