LTspice 24.0.9 for Windows
Circuit: * C:\Users\hop\Documents\GitHub\LTspice\27-inductor\10-SER2918H-153_non-linear_model_ridley_Rac.asc
Start Time: Sat Apr 12 22:34:16 2025
solver = Normal
Maximum thread count: 4
tnom = 27
temp = 27
method = modified trap
.OP point found by inspection.
Total elapsed time: 0.109 seconds.

