LTspice 24.0.9 for Windows
Circuit: * C:\Users\hop\Documents\GitHub\LTspice\18-temperature_analysis\02-IRF840_steady_state.asc
Start Time: Sat Dec 21 22:32:32 2024
solver = Normal
Maximum thread count: 4
tnom = 27
temp = 27
method = modified trap
Direct Newton iteration for .op point succeeded.
Total elapsed time: 0.081 seconds.

