LTspice 24.0.9 for Windows
Circuit: * C:\Users\hop\Documents\GitHub\LTspice\18-temperature_analysis\03-IPB035N08N3_steady_state.asc
Start Time: Thu Jan 16 22:03:55 2025
solver = Normal
Maximum thread count: 4
tnom = 27
temp = 25
method = modified trap
WARNING: Less than two connections to node n001.  This node is used by rcsa1.
Direct Newton iteration for .op point succeeded.
Total elapsed time: 0.143 seconds.

