LTspice 24.0.9 for Windows
Circuit: * C:\Users\s\Documents\GitHub\LTspice\31-active_probe\01-bf998_active_probe.asc
Start Time: Tue Feb  4 20:20:55 2025
solver = Normal
Maximum thread count: 4
tnom = 27
temp = 27
method = modified trap
Instance "m:u1:os1": Width narrower than recommended for a level 3 MOSFET.
Direct Newton iteration for .op point succeeded.
Total elapsed time: 0.154 seconds.

