LTspice 24.0.9 for Windows
Circuit: * C:\Users\s\Documents\GitHub\LTspice\31-active_probe\02-bf998_active_probe_transient.asc
Start Time: Tue Feb  4 20:30:19 2025
solver = Normal
Maximum thread count: 4
tnom = 27
temp = 27
method = modified trap
WARNING: Less than two connections to node nc_01.  This node is used by r6.
Instance "m:u1:os1": Width narrower than recommended for a level 3 MOSFET.
Direct Newton iteration for .op point succeeded.

coeff: v(out)/v(in)=9.13449e+10

Total elapsed time: 0.150 seconds.

