LTspice 24.0.9 for Windows
Circuit: * C:\Users\s\Documents\GitHub\LTspice\31-active_probe\03-ad828a_active_probe_ac.asc
Start Time: Wed Feb  5 14:39:48 2025
solver = Normal
Maximum thread count: 4
tnom = 27
temp = 27
method = modified trap
Direct Newton iteration for .op point succeeded.
Total elapsed time: 0.081 seconds.

