LTspice 24.0.9 for Windows
Circuit: * C:\Users\s\Documents\GitHub\LTspice\31-active_probe\Draft1.asc
Start Time: Wed Feb  5 13:03:09 2025
solver = Normal
Maximum thread count: 4
tnom = 27
temp = 27
method = modified trap
WARNING: Less than two connections to node nc_05.  This node is used by l:u1:o.
No AC stimulus found:
     Set the value of a current or voltage source to "AC 1."
     to make it behave as a signal generator for AC analysis.
Early termination of direct N-R iteration.
Direct Newton iteration failed to find .op point.  (Use ".option noopiter" to skip.)
Starting Gmin stepping
Gmin = 10
Gmin = 1.07374
Gmin = 0.115292
Gmin = 0.0123794
Gmin = 0.00132923
Gmin = 0.000142725
Gmin = 1.5325e-05
Gmin = 1.6455e-06
Gmin = 1.76685e-07
Gmin = 1.89714e-08
Gmin = 2.03704e-09
vernier = 0.5
Gmin = 5.7877e-10
vernier = 0.666667
vernier = 0.888888
Gmin = 1.02855e-10
vernier = 1
vernier = 0.5
vernier = 0.25
Gmin = 3.12275e-11
vernier = 0.333333
vernier = 0.166667
Gmin = 1.74477e-11
vernier = 0.0833333
vernier = 0.0416667
Gmin = 1.49641e-11
vernier = 0.0555555
vernier = 0.0277778
Gmin = 1.37741e-11
vernier = 0.0138889
vernier = 0.00694444
vernier = 0.00347222
Gmin = 1.3608e-11
vernier = 0.00173611
vernier = 0.000868055
Gmin = 1.35785e-11
vernier = 0.000434028
Gmin = 0
Gmin stepping failed

Starting source stepping with srcstepmethod=0
Source Step = 3.0303%
Source Step = 33.3333%
Source Step = 52.4621%
Source Step = 53.0303%
Source Step = 53.1161%
Source Step = 53.1457%
Source Step = 53.1753%
Source Step = 53.2049%
Source Step = 53.2345%
Source Step = 53.2641%
vernier = 0.00146484
Source Step = 53.2996%
Source Step = 53.344%
Source Step = 53.3884%
Source Step = 53.4328%
Source Step = 53.4772%
vernier = 0.00219727
Source Step = 53.5282%
Source Step = 53.5948%
Source Step = 53.6614%
Source Step = 53.728%
Source Step = 53.7945%
vernier = 0.0032959
Source Step = 53.8678%
Source Step = 53.9677%
Source Step = 54.0675%
Source Step = 54.1674%
Source Step = 54.2673%
vernier = 0.00494385
Source Step = 54.3722%
Source Step = 54.522%
Source Step = 54.6718%
Source Step = 54.8216%
Source Step = 54.9714%
Source Step = 55.1212%
vernier = 0.00741577
Source Step = 55.3459%
Source Step = 55.5707%
Source Step = 55.7954%
Source Step = 56.0201%
Source Step = 56.2448%
vernier = 0.0111237
Source Step = 56.5707%
Source Step = 56.9077%
Source Step = 57.2448%
Source Step = 57.5819%
Source Step = 57.919%
vernier = 0.0166855
Source Step = 58.3909%
Source Step = 58.8965%
Source Step = 59.4021%
Source Step = 59.9078%
Source Step = 60.4134%
vernier = 0.0250282
Source Step = 61.096%
Source Step = 61.8544%
Source Step = 62.6128%
Source Step = 63.3713%
Source Step = 64.1297%
vernier = 0.0375423
Source Step = 65.1157%
Source Step = 66.2533%
Source Step = 67.391%
Source Step = 68.5286%
Source Step = 69.6662%
vernier = 0.0563135
Source Step = 71.0883%
Source Step = 72.7948%
Source Step = 74.5012%
Source Step = 76.2077%
Source Step = 77.9142%
vernier = 0.0844703
Source Step = 79.9619%
Source Step = 82.5217%
Source Step = 85.0814%
Source Step = 87.6411%
Source Step = 90.2008%
Source Step = 90.3288%
Source Step = 90.3647%
Source Step = 90.4047%
Source Step = 90.4447%
Source Step = 90.4847%
Source Step = 90.5247%
Source Step = 90.5647%
Source Step = 90.6047%
Source Step = 90.6447%
Source Step = 90.6847%
Source Step = 90.7247%
Source Step = 90.7647%
Source Step = 90.8047%
Source Step = 90.8447%
Source Step = 90.8847%
Source Step = 90.9247%
Source Step = 90.9647%
Source Step = 91.0047%
Source Step = 91.0447%
Source Step = 91.0847%
Source Step = 91.1247%
Source Step = 91.1647%
Source Step = 91.2047%
Source Step = 91.2446%
Source Step = 91.2846%
Source Step = 91.3246%
Source Step = 91.3646%
Source Step = 91.4046%
Source Step = 91.4446%
Source Step = 91.4846%
Source Step = 91.5246%
Source Step = 91.5646%
Source Step = 91.6046%
Source Step = 91.6446%
Source Step = 91.6846%
Source Step = 91.7246%
Source Step = 91.7646%
Source Step = 91.8046%
Source Step = 91.8446%
Source Step = 91.8846%
Source Step = 91.9246%
Source Step = 91.9646%
Source Step = 92.0046%
Source Step = 92.0446%
Source Step = 92.0846%
Source Step = 92.1245%
Source Step = 92.1645%
Source Step = 92.2045%
Source Step = 92.2445%
Source Step = 92.2845%
Source Step = 92.3245%
Source Step = 92.3645%
Source Step = 92.4045%
Source Step = 92.4445%
Source Step = 92.4845%
Source Step = 92.5245%
Source Step = 92.5645%
Source Step = 92.6045%
Source Step = 92.6445%
Source Step = 92.6845%
Source Step = 92.7245%
Source Step = 92.7645%
Source Step = 92.8045%
Source Step = 92.8445%
Source Step = 92.8845%
Source Step = 92.9245%
Source Step = 92.9644%
Source Step = 93.0044%
Source Step = 93.0444%
Source Step = 93.0844%
Source Step = 93.1244%
Source Step = 93.1644%
Source Step = 93.2044%
Source Step = 93.2444%
Source Step = 93.2844%
Source Step = 93.3244%
Source Step = 93.3644%
Source Step = 93.4044%
Source Step = 93.4444%
Source Step = 93.4844%
Source Step = 93.5244%
Source Step = 93.5644%
Source Step = 93.6044%
Source Step = 93.6444%
Source Step = 93.6844%
Source Step = 93.7244%
Source Step = 93.7644%
Source Step = 93.8044%
Source Step = 93.8443%
Source Step = 93.8843%
Source Step = 93.9243%
Source Step = 93.9643%
Source Step = 94.0043%
Source Step = 94.0443%
Source Step = 94.0843%
Source Step = 94.1243%
Source Step = 94.1643%
Source Step = 94.2043%
Source Step = 94.2443%
Source Step = 94.2843%
Source Step = 94.3243%
Source Step = 94.3643%
Source Step = 94.4043%
Source Step = 94.4443%
Source Step = 94.4843%
Source Step = 94.5243%
Source Step = 94.5643%
Source Step = 94.6043%
Source Step = 94.6443%
Source Step = 94.6843%
Source Step = 94.7242%
Source Step = 94.7642%
Source Step = 94.8042%
Source Step = 94.8442%
Source Step = 94.8842%
Source Step = 94.9242%
Source Step = 94.9642%
Source Step = 95.0042%
Source Step = 95.0442%
Source Step = 95.0842%
Source Step = 95.1242%
Source Step = 95.1642%
Source Step = 95.2042%
Source Step = 95.2442%
Source Step = 95.2842%
Source Step = 95.3242%
Source Step = 95.3642%
Source Step = 95.4042%
Source Step = 95.4442%
Source Step = 95.4842%
Source Step = 95.5242%
Source Step = 95.5642%
Source Step = 95.6041%
Source Step = 95.6441%
Source Step = 95.6841%
Source Step = 95.7241%
Source Step = 95.7641%
Source Step = 95.8041%
Source Step = 95.8441%
Source Step = 95.8841%
Source Step = 95.9241%
Source Step = 95.9641%
Source Step = 96.0041%
Source Step = 96.0441%
Source Step = 96.0841%
Source Step = 96.1241%
Source Step = 96.1641%
Source Step = 96.2041%
Source Step = 96.2441%
Source Step = 96.2841%
Source Step = 96.3241%
Source Step = 96.3641%
Source Step = 96.4041%
Source Step = 96.444%
Source Step = 96.484%
Source Step = 96.524%
Source Step = 96.564%
Source Step = 96.604%
Source Step = 96.644%
Source Step = 96.684%
Source Step = 96.724%
Source Step = 96.764%
Source Step = 96.804%
Source Step = 96.844%
Source Step = 96.884%
Source Step = 96.924%
Source Step = 96.964%
Source Step = 97.004%
Source Step = 97.044%
Source Step = 97.084%
Source Step = 97.124%
Source Step = 97.164%
Source Step = 97.204%
Source Step = 97.244%
Source Step = 97.284%
Source Step = 97.3239%
Source Step = 97.3639%
Source Step = 97.4039%
Source Step = 97.4439%
Source Step = 97.4839%
Source Step = 97.5239%
Source Step = 97.5639%
Source Step = 97.6039%
Source Step = 97.6439%
Source Step = 97.6839%
Source Step = 97.7239%
Source Step = 97.7639%
Source Step = 97.8039%
Source Step = 97.8439%
Source Step = 97.8839%
Source Step = 97.9239%
Source Step = 97.9639%
Source Step = 98.0039%
Source Step = 98.0439%
Source Step = 98.0839%
Source Step = 98.1239%
Source Step = 98.1639%
Source Step = 98.2038%
Source Step = 98.2438%
Source Step = 98.2838%
Source Step = 98.3238%
Source Step = 98.3638%
Source Step = 98.4038%
Source Step = 98.4438%
Source Step = 98.4838%
Source Step = 98.5238%
Source Step = 98.5638%
Source Step = 98.6038%
Source Step = 98.6438%
Source Step = 98.6838%
Source Step = 98.7238%
Source Step = 98.7638%
Source Step = 98.8038%
Source Step = 98.8438%
Source Step = 98.8838%
Source Step = 98.9238%
Source Step = 98.9638%
Source Step = 99.0038%
Source Step = 99.0437%
Source Step = 99.0837%
Source Step = 99.1237%
Source Step = 99.1637%
Source Step = 99.2037%
Source Step = 99.2437%
Source Step = 99.2837%
Source Step = 99.3237%
Source Step = 99.3637%
Source Step = 99.4037%
Source Step = 99.4437%
Source Step = 99.4837%
Source Step = 99.5237%
Source Step = 99.5637%
Source Step = 99.6037%
Source Step = 99.6437%
Source Step = 99.6837%
Source Step = 99.7237%
Source Step = 99.7637%
Source Step = 99.8037%
Source Step = 99.8437%
Source Step = 99.8837%
Source Step = 99.9236%
Source Step = 99.9636%
Source Step = 100%
Source Step = 100%
Starting source stepping with srcstepmethod=1
Could not converge to DC with sources off!
Pseudo Transient failed in finding the operating point at 155.291 ms.
Fatal Error: Failed to find DC operating point for AC analysis.
