LTspice 24.0.9 for Windows
Circuit: * C:\Users\hop\Documents\GitHub\LTspice\12-capacitors\02-865090140001_constant_esr.asc
Start Time: Tue Jun  4 23:30:24 2024
solver = Normal
Maximum thread count: 4
tnom = 27
temp = 27
method = modified trap
WARNING: Node Z is floating.

.OP point found by inspection.
Total elapsed time: 0.087 seconds.

