LTspice 24.0.9 for Windows
Circuit: * C:\Users\s\Documents\GitHub\LTspice\12-capacitors\03-rc_lowpass.asc
Start Time: Sun Dec 29 15:51:39 2024
solver = Normal
Maximum thread count: 4
tnom = 27
temp = 27
method = modified trap
c3: Increased Cpar to 4.7e-09
c4: Increased Cpar to 4.7e-09
.OP point found by inspection.
Total elapsed time: 0.033 seconds.

