LTspice 24.0.9 for Windows
Circuit: * C:\Users\s\Documents\GitHub\LTspice\12-capacitors\04-GRM188R6YA475KE15_impedance.asc
Start Time: Sun Dec 29 17:24:29 2024
solver = Normal
Maximum thread count: 4
tnom = 27
temp = 27
method = modified trap
c1: Increased Cpar to 4.7e-12
WARNING: Node Z is floating.

.OP point found by inspection.
Total elapsed time: 0.074 seconds.

