LTspice 24.0.9 for Windows
Circuit: * C:\Users\s\Documents\GitHub\LTspice\12-capacitors\05-EMVH250ARA101MF80G_impedance.asc
Start Time: Mon Dec 30 19:32:53 2024
solver = Normal
Maximum thread count: 4
tnom = 27
temp = 27
method = modified trap
WARNING: Node C1:6 is floating.
WARNING: Node C2:6 is floating.
WARNING: Node C3:6 is floating.

.OP point found by inspection.
Total elapsed time: 0.080 seconds.

