LTspice 24.0.9 for Windows
Circuit: * C:\Users\s\Documents\GitHub\LTspice\12-capacitors\06-EMVH250ARA101MF80G_impedance_table.asc
Start Time: Mon Dec 30 21:47:03 2024
solver = Normal
Maximum thread count: 4



WARNING: Node C1:6 is floating.
WARNING: Node C2:6 is floating.
WARNING: Node C3:6 is floating.
WARNING: Node CAP is floating.
WARNING: Node C5:6 is floating.

.OP point found by inspection.
.step temp=-40°C



.step temp=-20°C



.step temp=20°C



.step temp=85°C
tnom = 27
temp = 1253
method = modified trap
.step temp=1253°C
Total elapsed time: 0.151 seconds.

