LTspice 24.0.9 for Windows
Circuit: * C:\Users\hop\Documents\GitHub\LTspice\15-pdn\01-simple_model.asc
Start Time: Sat Jan 11 19:54:55 2025
solver = Normal
Maximum thread count: 4
tnom = 27
temp = 27
method = modified trap
WARNING: Less than two connections to node target.  This node is used by b1.
.OP point found by inspection.
Total elapsed time: 0.129 seconds.

