LTspice 24.0.9 for Windows
Circuit: * C:\Users\SGI-U3\Documents\GitHub\LTspice\15-pdn\01-simple_model.asc
Start Time: Sat Jun  8 10:06:43 2024
solver = Normal
Maximum thread count: 8
tnom = 27
temp = 27
method = modified trap
WARNING: Less than two connections to node target.  This node is used by b1.
.OP point found by inspection.
Total elapsed time: 0.071 seconds.

