LTspice 24.0.9 for Windows
Circuit: * C:\Users\hop\Documents\GitHub\LTspice\15-pdn\02-4cap_same_size_murata.asc
Start Time: Mon Feb 10 15:43:29 2025
solver = Normal
Maximum thread count: 4
tnom = 27
temp = 27
method = modified trap
.OP point found by inspection.
Total elapsed time: 0.572 seconds.

