LTspice 24.0.9 for Windows
Circuit: * C:\Users\hop\Documents\GitHub\LTspice\25-gallium_nitride\01-epc2040.asc
Start Time: Fri Aug 30 20:00:19 2024
Warning: Multiple definitions of model "2scr375p" Type: BJT
Warning: Multiple definitions of model "bc857b" Type: BJT
Warning: Multiple definitions of model "bc847c" Type: BJT
Warning: Multiple definitions of model "bc847b" Type: BJT
solver = Normal
Maximum thread count: 4



Direct Newton iteration for .op point succeeded.
.step signal_level=3.3
tnom = 27
temp = 27
method = modified trap
.step signal_level=5


Measurement "peak_iload" FAIL'ed

Measurement "rt_load" FAIL'ed

Total elapsed time: 0.275 seconds.

