Circuit: * C:\Users\LP\Documents\GitHub\LTspice\02-offset voltage - bias & offset current\02-LM358\01-LM358 offset voltage bias current.asc

Direct Newton iteration failed to find .op point.  (Use ".option noopiter" to skip.)
Starting Gmin stepping
Gmin = 10
Gmin = 1.07374
Gmin = 0.115292
Gmin = 0.0123794
Gmin = 0.00132923
Gmin = 0.000142725
Gmin = 1.5325e-005
Gmin = 1.6455e-006
Gmin = 1.76685e-007
Gmin = 1.89714e-008
Gmin = 2.03704e-009
Gmin = 2.18725e-010
Gmin = 2.34854e-011
Gmin = 2.52173e-012
Gmin = 2.70769e-013
Gmin = 0
Gmin stepping succeeded in finding the operating point.


voffset: AVG(v(inp)-v(out))=0.000422359 FROM 0 TO 0.001
ibias: AVG(ix(u1:in+))=-9.60678e-009 FROM 0 TO 0.001


Date: Sat Jul 23 09:33:16 2022
Total elapsed time: 0.101 seconds.

tnom = 27
temp = 27
method = modified trap
totiter = 2676
traniter = 2082
tranpoints = 1042
accept = 1042
rejected = 0
matrix size = 64
fillins = 26
solver = Normal
Thread vector: 16.8/2.6[2] 2.1/1.5[2] 1.0/3.9[1] 0.2/1.0[1]  2592/500
Matrix Compiler1: 5.99 KB object code size  0.9/0.5/[0.3]
Matrix Compiler2: 5.95 KB object code size  0.6/0.8/[0.3]

