Circuit: * C:\Users\HoP\Desktop\02-LM358\02-LM358 bias current effect - non-inv amp.asc

Direct Newton iteration failed to find .op point.  (Use ".option noopiter" to skip.)
Starting Gmin stepping
Gmin = 10
Gmin = 1.07374
Gmin = 0.115292
Gmin = 0.0123794
Gmin = 0.00132923
Gmin = 0.000142725
Gmin = 1.5325e-005
vernier = 0.5
vernier = 0.25
Gmin = 3.21388e-006
vernier = 0.125
vernier = 0.166667
Gmin = 2.34042e-006
vernier = 0.222222
vernier = 0.296296
Gmin = 1.3517e-006
vernier = 0.395061
Gmin = 5.77185e-007
vernier = 0.526748
vernier = 0.702331
Gmin = 1.43861e-007
vernier = 0.936441
vernier = 1
Gmin = 1.88579e-008
Gmin = 2.02486e-009
Gmin = 2.17417e-010
Gmin = 2.3345e-011
Gmin = 2.50665e-012
Gmin = 2.69149e-013
Gmin = 0
Gmin stepping succeeded in finding the operating point.

.step x=0.01
.step x=10000


Measurement: voff(div)
  step	AVG(v(out))	FROM	TO
     1	0.954999	0	0.001
     2	0.964744	0	0.001


Date: Fri Jul 22 17:53:05 2022
Total elapsed time: 0.325 seconds.

tnom = 27
temp = 27
method = modified trap
totiter = 2743
traniter = 2082
tranpoints = 1042
accept = 1042
rejected = 0
matrix size = 64
fillins = 46
solver = Normal
Matrix Compiler1: 6.96 KB object code size  2.0/1.1/[0.6]
Matrix Compiler2: 6.30 KB object code size  0.7/1.5/[0.4]

