Circuit: * C:\Users\HoP\Documents\GitHub\LTspice\02-basics\02-direct_bias_pn_sch.asc


Date: Wed Jan 03 20:28:58 2024
Total elapsed time: 0.084 seconds.

tnom = 27
temp = 27
method = trap
totiter = 185
traniter = 0
tranpoints = 0
accept = 0
rejected = 0
matrix size = 8
fillins = 0
solver = Normal
Matrix Compiler1: 372 bytes object code size  0.2/0.1/[0.1]
Matrix Compiler2: 674 bytes object code size  0.1/0.2/[0.1]

