Circuit: * C:\Users\SGI-U3\Documents\GitHub\LTspice\02-basics\03-sbrt20u60sp5.asc


Date: Tue Feb  6 14:09:06 2024
Total elapsed time: 0.079 seconds.

tnom = 27
temp = 27
method = trap
totiter = 409
traniter = 0
tranpoints = 0
accept = 0
rejected = 0
matrix size = 2
fillins = 0
solver = Normal
Avg thread counts: 6.1/0.0/8.0/6.1
Matrix Compiler1: off  [0.2]/0.2/0.2
Matrix Compiler2: 116 bytes object code size  0.2/0.2/[0.1]

