LTspice 24.0.9 for Windows
Circuit: * C:\Users\hop\Documents\GitHub\LTspice\02-basics\06-indutor_LPF_B82144A2106J000.asc
Start Time: Fri May 10 14:44:25 2024
solver = Normal
Maximum thread count: 4
tnom = 27
temp = 27
method = modified trap
.OP point found by inspection.
Total elapsed time: 0.067 seconds.

