Circuit: * C:\Users\SGI-U3\Documents\GitHub\LTspice\02-basics\08-non_inverting_amplifier_bode.asc

Direct Newton iteration for .op point succeeded.

Date: Tue Feb 27 17:21:44 2024
Total elapsed time: 0.083 seconds.

tnom = 27
temp = 27
method = trap
totiter = 17
traniter = 0
tranpoints = 0
accept = 0
rejected = 0
matrix size = 11
fillins = 2
solver = Normal
Avg thread counts: 8.0/0.0/8.0/5.1
Matrix Compiler1:      36 opcodes
Matrix Compiler2: 1.08 KB object code size
