LTspice 24.0.9 for Windows
Circuit: * C:\Users\hop\Documents\GitHub\LTspice\02-basics\10-transient_load.asc
Start Time: Fri Aug 23 19:13:16 2024
solver = Normal
Maximum thread count: 4
tnom = 27
temp = 27
method = modified trap
Direct Newton iteration for .op point succeeded.
Total elapsed time: 0.141 seconds.

