LTspice 24.0.9 for Windows
Circuit: * C:\Users\s\Documents\GitHub\LTspice\02-basics\12-voltage_divider_smps.asc
Start Time: Sun Oct 27 11:16:24 2024
solver = Normal
Maximum thread count: 4
tnom = 27
temp = 27
method = modified trap
Total elapsed time: 0.065 seconds.

