Circuit: * C:\Users\SGI-U3\Documents\GitHub\LTspice\02-basics\13-integrator.asc

Direct Newton iteration failed to find .op point.  (Use ".option noopiter" to skip.)
Starting Gmin stepping
Gmin = 10
Gmin = 1.07374
vernier = 0.5
vernier = 0.25
vernier = 0.125
vernier = 0.0625
Gmin = 1.10559
vernier = 0.03125
vernier = 0.015625
Gmin = 1.04709
vernier = 0.0208333
vernier = 0.0104167
vernier = 0.00520833
Gmin = 1.0282
vernier = 0.00694444
vernier = 0.00347222
Gmin = 1.01932
vernier = 0.00462963
vernier = 0.00231481
vernier = 0.00308642
vernier = 0.00154321
Gmin = 1.0155
vernier = 0.00205761
vernier = 0.00102881
Gmin = 1.0125
vernier = 0.00137174
vernier = 0.00068587
Gmin = 1.01033
vernier = 0.000914493
vernier = 0.000457247
Gmin = 1.00866
vernier = 0.000609662
Gmin = 1.00731
vernier = 0.000812882
vernier = 0.000406441
vernier = 0.000541921
vernier = 0.000406441
Gmin = 1.00665
vernier = 0.000541921
vernier = 0.000406441
Gmin = 1.00583
Gmin = 0
Gmin stepping failed

Starting source stepping with srcstepmethod=0
Source Step = 3.0303%
Source Step = 33.3333%
Source Step = 63.6364%
Source Step = 93.9394%
Source stepping succeeded in finding the operating point.


vout_min: MIN(v(out))=-1.97981 FROM 0.0023 TO 0.003

Measurement "noise_period" FAIL'ed

Measurement "noise_freq" FAIL'ed


Date: Wed Feb 28 14:34:09 2024
Total elapsed time: 0.728 seconds.

tnom = 27
temp = 27
method = modified trap
totiter = 10401
traniter = 2301
tranpoints = 1149
accept = 1129
rejected = 20
matrix size = 11
fillins = 2
solver = Normal
Avg thread counts: 2.2/3.4/3.4/2.2
Matrix Compiler1: 606 bytes object code size  0.6/0.4/[0.3]
Matrix Compiler2: 1017 bytes object code size  0.3/0.4/[0.3]

