LTspice 24.0.9 for Windows
Circuit: * C:\Users\hop\Documents\GitHub\LTspice\02-basics\13-linear_vs_switching.asc
Start Time: Thu Jan 16 11:14:24 2025
solver = Normal
Maximum thread count: 4
tnom = 27
temp = 27
method = modified trap
Direct Newton iteration for .op point succeeded.

v_rl1_avg: AVG(v(vin,vs1))=50.1425 FROM 0 TO 0.005
pin_1_avg: AVG(v(vin)*i(rl1))=1002.85 FROM 0 TO 0.005
pout_1_avg: AVG(v(vin,vs1)*i(rl1))=502.855 FROM 0 TO 0.005
ploss_1_avg: AVG(v(vs1)*ic(q1)+v(vlinear)*ib(q1))=500.058 FROM 0 TO 0.005
eff_linear: 100*pout_1_avg/pin_1_avg=50.1425
v_rl2_avg: AVG(v(vin,vs2))=51.1859 FROM 0 TO 0.005
pin_2_avg: AVG(v(vin)*i(rl2))=1023.72 FROM 0 TO 0.005
pout_2_avg: AVG(v(vin,vs2)*i(rl2))=997.906 FROM 0 TO 0.005
ploss_2_avg: AVG(v(vs2)*ic(q2)+v(vpulse)*ib(q2))=26.684 FROM 0 TO 0.005
eff_switching: 100*pout_2_avg/pin_2_avg=97.4786

Total elapsed time: 6.014 seconds.

