LTspice 24.0.9 for Windows
Circuit: * C:\Users\hop\Documents\GitHub\LTspice\02-basics\14-npn_chopper_efficiency.asc
Start Time: Fri Jan 24 17:39:47 2025
solver = Normal
Maximum thread count: 4



Direct Newton iteration for .op point succeeded.
.step rload=1



.step rload=2



.step rload=3



.step rload=4



.step rload=5



.step rload=6



.step rload=7



.step rload=8



.step rload=9
tnom = 27
temp = 27
method = modified trap
.step rload=10


Measurement: vout_avg
  step	AVG(v(vin,out))	FROM	TO
     1	17.1809	0	0.01
     2	29.7395	0	0.01
     3	39.2731	0	0.01
     4	46.7537	0	0.01
     5	49.7934	0	0.01
     6	49.9821	0	0.01
     7	50.1317	0	0.01
     8	50.2484	0	0.01
     9	50.3562	0	0.01
    10	50.4174	0	0.01

Measurement: pin
  step	AVG(-v(vin)*i(v1))	FROM	TO
     1	1718.05	0	0.01
     2	1486.86	0	0.01
     3	1309.09	0	0.01
     4	1168.84	0	0.01
     5	995.867	0	0.01
     6	833.034	0	0.01
     7	716.167	0	0.01
     8	628.105	0	0.01
     9	559.512	0	0.01
    10	504.174	0	0.01

Measurement: pout
  step	AVG(v(vin,out)*i(r1))	FROM	TO
     1	588.498	0	0.01
     2	881.623	0	0.01
     3	1024.93	0	0.01
     4	1089.28	0	0.01
     5	986.864	0	0.01
     6	826.598	0	0.01
     7	711.19	0	0.01
     8	624.133	0	0.01
     9	556.212	0	0.01
    10	501.366	0	0.01

Measurement: total_efficency
  step	(pout/pin)*100
     1	34.2539
     2	59.2944
     3	78.2936
     4	93.1931
     5	99.096
     6	99.2274
     7	99.3051
     8	99.3677
     9	99.4101
    10	99.4431

Total elapsed time: 3.270 seconds.

