LTspice 24.0.9 for Windows
Circuit: * C:\Users\s\Documents\GitHub\LTspice\02-basics\16-fuse_current.asc
Start Time: Sat Feb 22 12:34:16 2025
solver = Normal
Maximum thread count: 4



Per .tran options, skipping operating point for transient analysis.
.step iin=2



.step iin=2.5



.step iin=3



.step iin=3.5



.step iin=4



.step iin=4.5



.step iin=5



.step iin=5.5



.step iin=6



.step iin=6.5



.step iin=7



.step iin=7.5



.step iin=8



.step iin=8.5



.step iin=9



.step iin=9.5
tnom = 27
temp = 27
method = modified trap
.step iin=10
Total elapsed time: 2.153 seconds.

