LTspice 24.0.9 for Windows
Circuit: * C:\Users\s\Documents\GitHub\LTspice\02-basics\17-monte_carlo_voltage_divider.asc
Start Time: Sun Mar  9 09:34:52 2025
solver = Normal
Maximum thread count: 4



Direct Newton iteration for .op point succeeded.
.step x=0



.step x=1



.step x=2



.step x=3



.step x=4



.step x=5



.step x=6



.step x=7



.step x=8



.step x=9



.step x=10



.step x=11



.step x=12



.step x=13



.step x=14



.step x=15



.step x=16



.step x=17



.step x=18



.step x=19



.step x=20



.step x=21



.step x=22



.step x=23



.step x=24



.step x=25



.step x=26



.step x=27



.step x=28



.step x=29



.step x=30



.step x=31



.step x=32



.step x=33



.step x=34



.step x=35



.step x=36



.step x=37



.step x=38



.step x=39



.step x=40



.step x=41



.step x=42



.step x=43



.step x=44



.step x=45



.step x=46



.step x=47



.step x=48



.step x=49



.step x=50



.step x=51



.step x=52



.step x=53



.step x=54



.step x=55



.step x=56



.step x=57



.step x=58



.step x=59



.step x=60



.step x=61



.step x=62



.step x=63



.step x=64



.step x=65



.step x=66



.step x=67



.step x=68



.step x=69



.step x=70



.step x=71



.step x=72



.step x=73



.step x=74



.step x=75



.step x=76



.step x=77



.step x=78



.step x=79



.step x=80



.step x=81



.step x=82



.step x=83



.step x=84



.step x=85



.step x=86



.step x=87



.step x=88



.step x=89



.step x=90



.step x=91



.step x=92



.step x=93



.step x=94



.step x=95



.step x=96



.step x=97



.step x=98



.step x=99



.step x=100



.step x=101



.step x=102



.step x=103



.step x=104



.step x=105



.step x=106



.step x=107



.step x=108



.step x=109



.step x=110



.step x=111



.step x=112



.step x=113



.step x=114



.step x=115



.step x=116



.step x=117



.step x=118



.step x=119



.step x=120



.step x=121



.step x=122



.step x=123



.step x=124



.step x=125



.step x=126



.step x=127



.step x=128



.step x=129



.step x=130



.step x=131



.step x=132



.step x=133



.step x=134



.step x=135



.step x=136



.step x=137



.step x=138



.step x=139



.step x=140



.step x=141



.step x=142



.step x=143



.step x=144



.step x=145



.step x=146



.step x=147



.step x=148



.step x=149



.step x=150



.step x=151



.step x=152



.step x=153



.step x=154



.step x=155



.step x=156



.step x=157



.step x=158



.step x=159



.step x=160



.step x=161



.step x=162



.step x=163



.step x=164



.step x=165



.step x=166



.step x=167



.step x=168



.step x=169



.step x=170



.step x=171



.step x=172



.step x=173



.step x=174



.step x=175



.step x=176



.step x=177



.step x=178



.step x=179



.step x=180



.step x=181



.step x=182



.step x=183



.step x=184



.step x=185



.step x=186



.step x=187



.step x=188



.step x=189



.step x=190



.step x=191



.step x=192



.step x=193



.step x=194



.step x=195



.step x=196



.step x=197



.step x=198



.step x=199



.step x=200



.step x=201



.step x=202



.step x=203



.step x=204



.step x=205



.step x=206



.step x=207



.step x=208



.step x=209



.step x=210



.step x=211



.step x=212



.step x=213



.step x=214



.step x=215



.step x=216



.step x=217



.step x=218



.step x=219



.step x=220



.step x=221



.step x=222



.step x=223



.step x=224



.step x=225



.step x=226



.step x=227



.step x=228



.step x=229



.step x=230



.step x=231



.step x=232



.step x=233



.step x=234



.step x=235



.step x=236



.step x=237



.step x=238



.step x=239



.step x=240



.step x=241



.step x=242



.step x=243



.step x=244



.step x=245



.step x=246



.step x=247



.step x=248



.step x=249



.step x=250



.step x=251



.step x=252



.step x=253



.step x=254



.step x=255



.step x=256



.step x=257



.step x=258



.step x=259



.step x=260



.step x=261



.step x=262



.step x=263



.step x=264



.step x=265



.step x=266



.step x=267



.step x=268



.step x=269



.step x=270



.step x=271



.step x=272



.step x=273



.step x=274



.step x=275



.step x=276



.step x=277



.step x=278



.step x=279



.step x=280



.step x=281



.step x=282



.step x=283



.step x=284



.step x=285



.step x=286



.step x=287



.step x=288



.step x=289



.step x=290



.step x=291



.step x=292



.step x=293



.step x=294



.step x=295



.step x=296



.step x=297



.step x=298



.step x=299



.step x=300



.step x=301



.step x=302



.step x=303



.step x=304



.step x=305



.step x=306



.step x=307



.step x=308



.step x=309



.step x=310



.step x=311



.step x=312



.step x=313



.step x=314



.step x=315



.step x=316



.step x=317



.step x=318



.step x=319



.step x=320



.step x=321



.step x=322



.step x=323



.step x=324



.step x=325



.step x=326



.step x=327



.step x=328



.step x=329



.step x=330



.step x=331



.step x=332



.step x=333



.step x=334



.step x=335



.step x=336



.step x=337



.step x=338



.step x=339



.step x=340



.step x=341



.step x=342



.step x=343



.step x=344



.step x=345



.step x=346



.step x=347



.step x=348



.step x=349



.step x=350



.step x=351



.step x=352



.step x=353



.step x=354



.step x=355



.step x=356



.step x=357



.step x=358



.step x=359



.step x=360



.step x=361



.step x=362



.step x=363



.step x=364



.step x=365



.step x=366



.step x=367



.step x=368



.step x=369



.step x=370



.step x=371



.step x=372



.step x=373



.step x=374



.step x=375



.step x=376



.step x=377



.step x=378



.step x=379



.step x=380



.step x=381



.step x=382



.step x=383



.step x=384



.step x=385



.step x=386



.step x=387



.step x=388



.step x=389



.step x=390



.step x=391



.step x=392



.step x=393



.step x=394



.step x=395



.step x=396



.step x=397



.step x=398



.step x=399



.step x=400



.step x=401



.step x=402



.step x=403



.step x=404



.step x=405



.step x=406



.step x=407



.step x=408



.step x=409



.step x=410



.step x=411



.step x=412



.step x=413



.step x=414



.step x=415



.step x=416



.step x=417



.step x=418



.step x=419



.step x=420



.step x=421



.step x=422



.step x=423



.step x=424



.step x=425



.step x=426



.step x=427



.step x=428



.step x=429



.step x=430



.step x=431



.step x=432



.step x=433



.step x=434



.step x=435



.step x=436



.step x=437



.step x=438



.step x=439



.step x=440



.step x=441



.step x=442



.step x=443



.step x=444



.step x=445



.step x=446



.step x=447



.step x=448



.step x=449



.step x=450



.step x=451



.step x=452



.step x=453



.step x=454



.step x=455



.step x=456



.step x=457



.step x=458



.step x=459



.step x=460



.step x=461



.step x=462



.step x=463



.step x=464



.step x=465



.step x=466



.step x=467



.step x=468



.step x=469



.step x=470



.step x=471



.step x=472



.step x=473



.step x=474



.step x=475



.step x=476



.step x=477



.step x=478



.step x=479



.step x=480



.step x=481



.step x=482



.step x=483



.step x=484



.step x=485



.step x=486



.step x=487



.step x=488



.step x=489



.step x=490



.step x=491



.step x=492



.step x=493



.step x=494



.step x=495



.step x=496



.step x=497



.step x=498



.step x=499
tnom = 27
temp = 27
method = modified trap
.step x=500


Measurement: vout_avg
  step	AVG(v(out))	FROM	TO
     1	5.00562e-06	0	0.001
     2	5.00615e-06	0	0.001
     3	4.99894e-06	0	0.001
     4	5.00545e-06	0	0.001
     5	4.99923e-06	0	0.001
     6	5.00685e-06	0	0.001
     7	4.99803e-06	0	0.001
     8	4.9971e-06	0	0.001
     9	5.00273e-06	0	0.001
    10	5.00018e-06	0	0.001
    11	4.99457e-06	0	0.001
    12	4.99885e-06	0	0.001
    13	5.00369e-06	0	0.001
    14	5.00039e-06	0	0.001
    15	5.00005e-06	0	0.001
    16	5.00497e-06	0	0.001
    17	4.99901e-06	0	0.001
    18	5.00551e-06	0	0.001
    19	5.00019e-06	0	0.001
    20	4.99782e-06	0	0.001
    21	4.9985e-06	0	0.001
    22	4.99969e-06	0	0.001
    23	4.99603e-06	0	0.001
    24	4.99773e-06	0	0.001
    25	4.99347e-06	0	0.001
    26	5.00063e-06	0	0.001
    27	5.00002e-06	0	0.001
    28	4.9978e-06	0	0.001
    29	5.00031e-06	0	0.001
    30	4.99184e-06	0	0.001
    31	4.99716e-06	0	0.001
    32	4.99379e-06	0	0.001
    33	5.0091e-06	0	0.001
    34	4.99996e-06	0	0.001
    35	5.00103e-06	0	0.001
    36	4.99888e-06	0	0.001
    37	4.9972e-06	0	0.001
    38	4.99724e-06	0	0.001
    39	5.00491e-06	0	0.001
    40	4.99364e-06	0	0.001
    41	4.99786e-06	0	0.001
    42	4.99874e-06	0	0.001
    43	4.99788e-06	0	0.001
    44	5.00073e-06	0	0.001
    45	5.00377e-06	0	0.001
    46	5.00472e-06	0	0.001
    47	4.99594e-06	0	0.001
    48	5.00488e-06	0	0.001
    49	4.99571e-06	0	0.001
    50	4.99805e-06	0	0.001
    51	5.00802e-06	0	0.001
    52	5.00764e-06	0	0.001
    53	4.9961e-06	0	0.001
    54	4.99643e-06	0	0.001
    55	4.99716e-06	0	0.001
    56	5.00724e-06	0	0.001
    57	4.9976e-06	0	0.001
    58	4.99986e-06	0	0.001
    59	4.99658e-06	0	0.001
    60	5.00348e-06	0	0.001
    61	4.99673e-06	0	0.001
    62	5.00289e-06	0	0.001
    63	5.00073e-06	0	0.001
    64	4.99753e-06	0	0.001
    65	5.00244e-06	0	0.001
    66	4.992e-06	0	0.001
    67	5.00145e-06	0	0.001
    68	4.99678e-06	0	0.001
    69	4.99972e-06	0	0.001
    70	4.99796e-06	0	0.001
    71	4.99903e-06	0	0.001
    72	4.9947e-06	0	0.001
    73	4.99815e-06	0	0.001
    74	4.99315e-06	0	0.001
    75	4.99828e-06	0	0.001
    76	5.00565e-06	0	0.001
    77	4.99558e-06	0	0.001
    78	5.00389e-06	0	0.001
    79	5.00968e-06	0	0.001
    80	4.99477e-06	0	0.001
    81	4.99662e-06	0	0.001
    82	4.99783e-06	0	0.001
    83	4.9954e-06	0	0.001
    84	4.99281e-06	0	0.001
    85	5.00633e-06	0	0.001
    86	5.00627e-06	0	0.001
    87	5.0005e-06	0	0.001
    88	5.00593e-06	0	0.001
    89	4.99873e-06	0	0.001
    90	5.00146e-06	0	0.001
    91	4.99891e-06	0	0.001
    92	5.00059e-06	0	0.001
    93	5.00046e-06	0	0.001
    94	4.99904e-06	0	0.001
    95	4.99461e-06	0	0.001
    96	5.00341e-06	0	0.001
    97	4.99933e-06	0	0.001
    98	4.9953e-06	0	0.001
    99	4.99765e-06	0	0.001
   100	4.99594e-06	0	0.001
   101	4.99795e-06	0	0.001
   102	4.99954e-06	0	0.001
   103	4.99531e-06	0	0.001
   104	5.00458e-06	0	0.001
   105	5.00228e-06	0	0.001
   106	5.00146e-06	0	0.001
   107	5.00817e-06	0	0.001
   108	5.0054e-06	0	0.001
   109	5.00528e-06	0	0.001
   110	5.00343e-06	0	0.001
   111	4.99117e-06	0	0.001
   112	4.99395e-06	0	0.001
   113	5.00542e-06	0	0.001
   114	4.99791e-06	0	0.001
   115	4.99976e-06	0	0.001
   116	5.00014e-06	0	0.001
   117	5.00036e-06	0	0.001
   118	4.99974e-06	0	0.001
   119	5.00096e-06	0	0.001
   120	4.99809e-06	0	0.001
   121	5.00554e-06	0	0.001
   122	5.00349e-06	0	0.001
   123	4.99946e-06	0	0.001
   124	5.00093e-06	0	0.001
   125	4.99766e-06	0	0.001
   126	4.99585e-06	0	0.001
   127	4.99871e-06	0	0.001
   128	5.0007e-06	0	0.001
   129	4.99344e-06	0	0.001
   130	5.00291e-06	0	0.001
   131	4.99703e-06	0	0.001
   132	4.99315e-06	0	0.001
   133	5.00308e-06	0	0.001
   134	5.00254e-06	0	0.001
   135	4.99868e-06	0	0.001
   136	5.00761e-06	0	0.001
   137	4.99893e-06	0	0.001
   138	5.00172e-06	0	0.001
   139	4.99997e-06	0	0.001
   140	5.00178e-06	0	0.001
   141	4.99903e-06	0	0.001
   142	4.99889e-06	0	0.001
   143	5.00035e-06	0	0.001
   144	5.0017e-06	0	0.001
   145	4.99576e-06	0	0.001
   146	5.00132e-06	0	0.001
   147	4.99851e-06	0	0.001
   148	5.00644e-06	0	0.001
   149	4.99938e-06	0	0.001
   150	4.99739e-06	0	0.001
   151	5.00346e-06	0	0.001
   152	5.00804e-06	0	0.001
   153	4.99668e-06	0	0.001
   154	5.004e-06	0	0.001
   155	5.00063e-06	0	0.001
   156	4.99631e-06	0	0.001
   157	4.99451e-06	0	0.001
   158	4.99886e-06	0	0.001
   159	5.00296e-06	0	0.001
   160	4.99873e-06	0	0.001
   161	4.99844e-06	0	0.001
   162	4.99788e-06	0	0.001
   163	5.00702e-06	0	0.001
   164	5.00522e-06	0	0.001
   165	4.99628e-06	0	0.001
   166	4.99749e-06	0	0.001
   167	5.00405e-06	0	0.001
   168	4.99804e-06	0	0.001
   169	4.99675e-06	0	0.001
   170	5.00197e-06	0	0.001
   171	5.00612e-06	0	0.001
   172	4.9966e-06	0	0.001
   173	5.00302e-06	0	0.001
   174	5.00583e-06	0	0.001
   175	5.00715e-06	0	0.001
   176	4.99732e-06	0	0.001
   177	5.00132e-06	0	0.001
   178	5.00111e-06	0	0.001
   179	4.99909e-06	0	0.001
   180	4.99848e-06	0	0.001
   181	5.00455e-06	0	0.001
   182	4.99978e-06	0	0.001
   183	5.00293e-06	0	0.001
   184	5.00004e-06	0	0.001
   185	5.00084e-06	0	0.001
   186	5.00102e-06	0	0.001
   187	5.00485e-06	0	0.001
   188	4.99851e-06	0	0.001
   189	5.00719e-06	0	0.001
   190	5.00361e-06	0	0.001
   191	4.99728e-06	0	0.001
   192	4.99677e-06	0	0.001
   193	4.99799e-06	0	0.001
   194	4.99327e-06	0	0.001
   195	5.00504e-06	0	0.001
   196	4.99894e-06	0	0.001
   197	4.99871e-06	0	0.001
   198	5.00495e-06	0	0.001
   199	5.00635e-06	0	0.001
   200	5.0002e-06	0	0.001
   201	5.00442e-06	0	0.001
   202	5.00027e-06	0	0.001
   203	4.99902e-06	0	0.001
   204	5.00164e-06	0	0.001
   205	4.99341e-06	0	0.001
   206	4.99978e-06	0	0.001
   207	4.99149e-06	0	0.001
   208	5.00011e-06	0	0.001
   209	5.00578e-06	0	0.001
   210	5.00034e-06	0	0.001
   211	4.99891e-06	0	0.001
   212	5.00307e-06	0	0.001
   213	4.99704e-06	0	0.001
   214	4.99745e-06	0	0.001
   215	5.00429e-06	0	0.001
   216	4.99842e-06	0	0.001
   217	4.99669e-06	0	0.001
   218	5.00261e-06	0	0.001
   219	5.00454e-06	0	0.001
   220	5.00934e-06	0	0.001
   221	5.00184e-06	0	0.001
   222	4.99565e-06	0	0.001
   223	5.0016e-06	0	0.001
   224	5.00414e-06	0	0.001
   225	5.00578e-06	0	0.001
   226	4.9921e-06	0	0.001
   227	4.99851e-06	0	0.001
   228	5.00111e-06	0	0.001
   229	5.00155e-06	0	0.001
   230	5.00547e-06	0	0.001
   231	5.00049e-06	0	0.001
   232	5.00838e-06	0	0.001
   233	5.00062e-06	0	0.001
   234	5.00466e-06	0	0.001
   235	4.99111e-06	0	0.001
   236	4.9987e-06	0	0.001
   237	4.99638e-06	0	0.001
   238	5.0063e-06	0	0.001
   239	5.00327e-06	0	0.001
   240	4.99937e-06	0	0.001
   241	5.00281e-06	0	0.001
   242	4.99204e-06	0	0.001
   243	4.99539e-06	0	0.001
   244	5.00702e-06	0	0.001
   245	5.00803e-06	0	0.001
   246	5.00094e-06	0	0.001
   247	5.00246e-06	0	0.001
   248	5.00747e-06	0	0.001
   249	5.0029e-06	0	0.001
   250	5.00681e-06	0	0.001
   251	5.00213e-06	0	0.001
   252	5.00058e-06	0	0.001
   253	5.00467e-06	0	0.001
   254	5.00053e-06	0	0.001
   255	5.00584e-06	0	0.001
   256	5.00011e-06	0	0.001
   257	4.99546e-06	0	0.001
   258	4.99743e-06	0	0.001
   259	5.00485e-06	0	0.001
   260	4.99852e-06	0	0.001
   261	4.99597e-06	0	0.001
   262	4.99957e-06	0	0.001
   263	5.00141e-06	0	0.001
   264	4.99686e-06	0	0.001
   265	4.99401e-06	0	0.001
   266	5.00319e-06	0	0.001
   267	4.9948e-06	0	0.001
   268	4.99958e-06	0	0.001
   269	4.9981e-06	0	0.001
   270	5.00093e-06	0	0.001
   271	5.00243e-06	0	0.001
   272	5.00439e-06	0	0.001
   273	4.99607e-06	0	0.001
   274	4.99926e-06	0	0.001
   275	5.00595e-06	0	0.001
   276	5.0071e-06	0	0.001
   277	4.99867e-06	0	0.001
   278	5.00081e-06	0	0.001
   279	5.00236e-06	0	0.001
   280	5.00147e-06	0	0.001
   281	4.99815e-06	0	0.001
   282	5.00167e-06	0	0.001
   283	5.00003e-06	0	0.001
   284	4.99405e-06	0	0.001
   285	5.00182e-06	0	0.001
   286	5.0038e-06	0	0.001
   287	4.99991e-06	0	0.001
   288	4.994e-06	0	0.001
   289	5.00072e-06	0	0.001
   290	5.0023e-06	0	0.001
   291	5.00149e-06	0	0.001
   292	5.00798e-06	0	0.001
   293	5.00315e-06	0	0.001
   294	4.99783e-06	0	0.001
   295	4.99402e-06	0	0.001
   296	4.99996e-06	0	0.001
   297	5.00327e-06	0	0.001
   298	5.0039e-06	0	0.001
   299	5.00252e-06	0	0.001
   300	5.00608e-06	0	0.001
   301	4.99474e-06	0	0.001
   302	4.99921e-06	0	0.001
   303	4.99889e-06	0	0.001
   304	5.00447e-06	0	0.001
   305	5.00925e-06	0	0.001
   306	5.00505e-06	0	0.001
   307	4.99803e-06	0	0.001
   308	5.00012e-06	0	0.001
   309	5.00016e-06	0	0.001
   310	5.0076e-06	0	0.001
   311	4.99891e-06	0	0.001
   312	5.00474e-06	0	0.001
   313	5.00109e-06	0	0.001
   314	4.99524e-06	0	0.001
   315	5.00068e-06	0	0.001
   316	5.00152e-06	0	0.001
   317	4.99948e-06	0	0.001
   318	5.00099e-06	0	0.001
   319	5.00373e-06	0	0.001
   320	5.00509e-06	0	0.001
   321	4.99523e-06	0	0.001
   322	4.99977e-06	0	0.001
   323	5.00586e-06	0	0.001
   324	4.99627e-06	0	0.001
   325	5.00425e-06	0	0.001
   326	5.00078e-06	0	0.001
   327	5.00325e-06	0	0.001
   328	5.00196e-06	0	0.001
   329	4.99707e-06	0	0.001
   330	4.99484e-06	0	0.001
   331	4.99669e-06	0	0.001
   332	4.99998e-06	0	0.001
   333	5.00246e-06	0	0.001
   334	4.9967e-06	0	0.001
   335	5.00257e-06	0	0.001
   336	4.9989e-06	0	0.001
   337	4.996e-06	0	0.001
   338	4.99247e-06	0	0.001
   339	4.99903e-06	0	0.001
   340	4.99289e-06	0	0.001
   341	5.00366e-06	0	0.001
   342	5.00185e-06	0	0.001
   343	5.00704e-06	0	0.001
   344	5.00155e-06	0	0.001
   345	5.00041e-06	0	0.001
   346	4.99556e-06	0	0.001
   347	4.99648e-06	0	0.001
   348	5.00481e-06	0	0.001
   349	4.99383e-06	0	0.001
   350	4.99767e-06	0	0.001
   351	5.00725e-06	0	0.001
   352	4.99269e-06	0	0.001
   353	5.00265e-06	0	0.001
   354	5.00289e-06	0	0.001
   355	5.00536e-06	0	0.001
   356	4.99021e-06	0	0.001
   357	5.00044e-06	0	0.001
   358	4.99897e-06	0	0.001
   359	5.00401e-06	0	0.001
   360	4.99717e-06	0	0.001
   361	5.00408e-06	0	0.001
   362	5.00405e-06	0	0.001
   363	4.99972e-06	0	0.001
   364	4.99311e-06	0	0.001
   365	5.00747e-06	0	0.001
   366	4.99895e-06	0	0.001
   367	5.00339e-06	0	0.001
   368	4.99699e-06	0	0.001
   369	5.00001e-06	0	0.001
   370	5.00454e-06	0	0.001
   371	4.99638e-06	0	0.001
   372	5.00218e-06	0	0.001
   373	5.00034e-06	0	0.001
   374	5.00412e-06	0	0.001
   375	5.00166e-06	0	0.001
   376	4.99623e-06	0	0.001
   377	5.00478e-06	0	0.001
   378	5.00069e-06	0	0.001
   379	4.99986e-06	0	0.001
   380	5.00571e-06	0	0.001
   381	5.00101e-06	0	0.001
   382	4.99937e-06	0	0.001
   383	5.00036e-06	0	0.001
   384	4.99609e-06	0	0.001
   385	4.99667e-06	0	0.001
   386	5.00469e-06	0	0.001
   387	4.99742e-06	0	0.001
   388	5.00657e-06	0	0.001
   389	4.9929e-06	0	0.001
   390	5.00296e-06	0	0.001
   391	5.00123e-06	0	0.001
   392	4.99988e-06	0	0.001
   393	5.00297e-06	0	0.001
   394	5.0096e-06	0	0.001
   395	4.99406e-06	0	0.001
   396	4.99723e-06	0	0.001
   397	4.99589e-06	0	0.001
   398	5.00149e-06	0	0.001
   399	5.00127e-06	0	0.001
   400	5.00803e-06	0	0.001
   401	5.00496e-06	0	0.001
   402	5.00433e-06	0	0.001
   403	4.99751e-06	0	0.001
   404	5.00481e-06	0	0.001
   405	5.00138e-06	0	0.001
   406	4.99494e-06	0	0.001
   407	4.99771e-06	0	0.001
   408	5.00305e-06	0	0.001
   409	5.00286e-06	0	0.001
   410	4.99866e-06	0	0.001
   411	5.00324e-06	0	0.001
   412	4.99601e-06	0	0.001
   413	4.99723e-06	0	0.001
   414	5.00164e-06	0	0.001
   415	5.003e-06	0	0.001
   416	5.00459e-06	0	0.001
   417	5.00095e-06	0	0.001
   418	4.99822e-06	0	0.001
   419	4.99946e-06	0	0.001
   420	4.99216e-06	0	0.001
   421	5.0028e-06	0	0.001
   422	5.00327e-06	0	0.001
   423	4.99983e-06	0	0.001
   424	5.00439e-06	0	0.001
   425	4.99243e-06	0	0.001
   426	4.99951e-06	0	0.001
   427	5.0021e-06	0	0.001
   428	4.99416e-06	0	0.001
   429	4.99393e-06	0	0.001
   430	4.99988e-06	0	0.001
   431	4.99614e-06	0	0.001
   432	4.99132e-06	0	0.001
   433	4.99449e-06	0	0.001
   434	5.00487e-06	0	0.001
   435	4.99983e-06	0	0.001
   436	4.99757e-06	0	0.001
   437	4.99794e-06	0	0.001
   438	4.99488e-06	0	0.001
   439	5.0001e-06	0	0.001
   440	4.99632e-06	0	0.001
   441	5.00335e-06	0	0.001
   442	4.99752e-06	0	0.001
   443	4.99906e-06	0	0.001
   444	4.99752e-06	0	0.001
   445	4.99863e-06	0	0.001
   446	5.00003e-06	0	0.001
   447	4.99509e-06	0	0.001
   448	4.99748e-06	0	0.001
   449	4.99916e-06	0	0.001
   450	4.99653e-06	0	0.001
   451	4.99892e-06	0	0.001
   452	5.00377e-06	0	0.001
   453	4.99132e-06	0	0.001
   454	5.00046e-06	0	0.001
   455	5.00474e-06	0	0.001
   456	5.005e-06	0	0.001
   457	5.0011e-06	0	0.001
   458	5.00184e-06	0	0.001
   459	4.99628e-06	0	0.001
   460	4.99569e-06	0	0.001
   461	4.99775e-06	0	0.001
   462	4.99966e-06	0	0.001
   463	4.99792e-06	0	0.001
   464	4.99614e-06	0	0.001
   465	4.9923e-06	0	0.001
   466	4.99922e-06	0	0.001
   467	5.00077e-06	0	0.001
   468	5.00725e-06	0	0.001
   469	5.00119e-06	0	0.001
   470	5.00447e-06	0	0.001
   471	5.00375e-06	0	0.001
   472	5.00033e-06	0	0.001
   473	4.99489e-06	0	0.001
   474	4.99533e-06	0	0.001
   475	4.99971e-06	0	0.001
   476	4.99203e-06	0	0.001
   477	5.00141e-06	0	0.001
   478	5.00008e-06	0	0.001
   479	5.00654e-06	0	0.001
   480	4.99407e-06	0	0.001
   481	4.99498e-06	0	0.001
   482	5.00268e-06	0	0.001
   483	4.9932e-06	0	0.001
   484	4.99821e-06	0	0.001
   485	4.99961e-06	0	0.001
   486	4.99508e-06	0	0.001
   487	5.00086e-06	0	0.001
   488	5.00599e-06	0	0.001
   489	5.00768e-06	0	0.001
   490	4.99463e-06	0	0.001
   491	4.99902e-06	0	0.001
   492	4.99362e-06	0	0.001
   493	5.00352e-06	0	0.001
   494	4.99638e-06	0	0.001
   495	4.99654e-06	0	0.001
   496	5.00181e-06	0	0.001
   497	4.99205e-06	0	0.001
   498	5.00042e-06	0	0.001
   499	5.00775e-06	0	0.001
   500	5.00065e-06	0	0.001
   501	4.99233e-06	0	0.001

Total elapsed time: 9.295 seconds.

