LTspice 24.0.9 for Windows
Circuit: * C:\Users\s\Documents\GitHub\LTspice\02-basics\18-pc817_group_delay.asc
Start Time: Mon Sep 29 09:30:14 2025
solver = Normal
Maximum thread count: 4
tnom = 27
temp = 27
method = modified trap
WARNING: Less than two connections to node out.  This node is used by a1.
Direct Newton iteration for .op point succeeded.
Total elapsed time: 0.080 seconds.

