Circuit: * C:\Users\HoP\Documents\GitHub\LTspice\01-offset voltage\01-AD8605\01-AD8605 offset voltage.asc

Instance "m:u1:6": Length shorter than recommended for a level 2 MOSFET.
Instance "m:u1:5": Length shorter than recommended for a level 2 MOSFET.
Instance "m:u1:4": Length shorter than recommended for a level 2 MOSFET.
Instance "m:u1:3": Length shorter than recommended for a level 2 MOSFET.
Instance "m:u1:2": Length shorter than recommended for a level 2 MOSFET.
Instance "m:u1:1": Length shorter than recommended for a level 2 MOSFET.
Direct Newton iteration failed to find .op point.  (Use ".option noopiter" to skip.)
Starting Gmin stepping
Gmin = 10
Gmin = 1.07374
Gmin = 0.115292
Gmin = 0.0123794
Gmin = 0.00132923
Gmin = 0.000142725
Gmin = 1.5325e-005
Gmin = 1.6455e-006
Gmin = 1.76685e-007
Gmin = 1.89714e-008
Gmin = 2.03704e-009
Gmin = 2.18725e-010
Gmin = 2.34854e-011
Gmin = 2.52173e-012
Gmin = 2.70769e-013
Gmin = 0
Gmin stepping succeeded in finding the operating point.


voffset: AVG(v(inp)-v(out))=7.89165e-005 FROM 0 TO 0.001


Date: Thu Jul 21 22:23:42 2022
Total elapsed time: 0.157 seconds.

tnom = 27
temp = 27
method = modified trap
totiter = 2520
traniter = 2082
tranpoints = 1042
accept = 1042
rejected = 0
matrix size = 44
fillins = 7
solver = Normal
Matrix Compiler1: 2.67 KB object code size  0.8/0.4/[0.2]
Matrix Compiler2: 3.95 KB object code size  0.6/0.6/[0.4]

