LTspice 24.0.9 for Windows
Circuit: * C:\Users\hop\Documents\GitHub\LTspice\14-analog_latch\01-analog_latch_npmos.asc
Start Time: Wed May 29 23:06:26 2024
Warning: Multiple definitions of model "2scr375p" Type: BJT
Warning: Multiple definitions of model "bc857b" Type: BJT
Warning: Multiple definitions of model "bc847c" Type: BJT
Warning: Multiple definitions of model "bc847b" Type: BJT
solver = Normal
Maximum thread count: 4
tnom = 27
temp = 27
method = modified trap
c3: Increased Cpar to 1e-11
.OP point found by inspection.
Total elapsed time: 0.244 seconds.

